/*---------------------------------------------------------------------------*\
  =========                 |
  \\      /  F ield         | OpenFOAM: The Open Source CFD Toolbox
   \\    /   O peration     | Website:  https://openfoam.org
    \\  /    A nd           | Version:  12
     \\/     M anipulation  |
\*---------------------------------------------------------------------------*/
Build  : 12-57574591d9e1
Exec   : foamRun -parallel
Date   : Jul 26 2025
Time   : 22:50:46
Host   : "ElMakiLinux"
PID    : 30604
I/O    : uncollated
Case   : /home/josedasilva/Downloads/myCasesOpenFOAM-12/bfStep
nProcs : 8
Slaves : 
7
(
"ElMakiLinux.30605"
"ElMakiLinux.30606"
"ElMakiLinux.30607"
"ElMakiLinux.30608"
"ElMakiLinux.30609"
"ElMakiLinux.30610"
"ElMakiLinux.30611"
)

Pstream initialised with:
    floatTransfer      : false
    nProcsSimpleSum    : 0
    commsType          : nonBlocking
    polling iterations : 0
sigFpe : Enabling floating point exception trapping (FOAM_SIGFPE).
fileModificationChecking : Monitoring run-time modified files using timeStampMaster (fileModificationSkew 10)
allowSystemOperations : Allowing user-supplied system call operations

// * * * * * * * * * * * * * * * * * * * * * * * * * * * * * * * * * * * * * //
Create time

Create mesh for time = 0

Selecting solver incompressibleFluid
Selecting viscosity model constant
Selecting turbulence model type RAS
Selecting RAS turbulence model kEpsilon
RAS
{
    model           kEpsilon;
    turbulence      on;
    printCoeffs     on;
    Cmu             0.09;
    C1              1.44;
    C2              1.92;
    C3              0;
    sigmak          1;
    sigmaEps        1.3;
}

No MRF models present


SIMPLE: Convergence criteria found
        p: tolerance 0.0001
        U: tolerance 0.0001
        "(k|epsilon)": tolerance 0.0001


SIMPLE: Operating solver in steady-state mode with 1 outer corrector
SIMPLE: Operating solver in SIMPLE mode



Starting time loop

Time = 1s

smoothSolver:  Solving for Ux, Initial residual = 1, Final residual = 5.93747198488e-09, No Iterations 21
smoothSolver:  Solving for Uy, Initial residual = 0, Final residual = 0, No Iterations 3
GAMG:  Solving for p, Initial residual = 1, Final residual = 0.00954794628512, No Iterations 77
GAMG:  Solving for p, Initial residual = 6.75347760449e-05, Final residual = 6.62225849557e-07, No Iterations 43
GAMG:  Solving for p, Initial residual = 8.78370776222e-07, Final residual = 9.33078189322e-08, No Iterations 24
time step continuity errors : sum local = 1.9368949683e-06, global = -4.1148872588e-07, cumulative = -4.1148872588e-07
smoothSolver:  Solving for epsilon, Initial residual = 0.13775235585, Final residual = 9.92865907054e-09, No Iterations 24
smoothSolver:  Solving for k, Initial residual = 1, Final residual = 8.22179321575e-09, No Iterations 29
ExecutionTime = 0.769878 s  ClockTime = 1 s

Time = 2s

smoothSolver:  Solving for Ux, Initial residual = 0.990322825254, Final residual = 9.59218369487e-09, No Iterations 30
smoothSolver:  Solving for Uy, Initial residual = 0.516651674971, Final residual = 6.17003164075e-09, No Iterations 29
GAMG:  Solving for p, Initial residual = 0.0290722216936, Final residual = 0.000279017207547, No Iterations 91
GAMG:  Solving for p, Initial residual = 0.000560908358562, Final residual = 5.34954267725e-06, No Iterations 89
GAMG:  Solving for p, Initial residual = 6.95925140567e-06, Final residual = 9.78079363173e-08, No Iterations 81
time step continuity errors : sum local = 7.83893363383e-07, global = -7.39127429665e-08, cumulative = -4.85401468847e-07
smoothSolver:  Solving for epsilon, Initial residual = 0.0477881733682, Final residual = 7.86700070731e-09, No Iterations 22
smoothSolver:  Solving for k, Initial residual = 0.507347946517, Final residual = 8.95983324443e-09, No Iterations 28
ExecutionTime = 1.740388 s  ClockTime = 2 s

Time = 3s

smoothSolver:  Solving for Ux, Initial residual = 0.58761084747, Final residual = 5.6390444598e-09, No Iterations 30
smoothSolver:  Solving for Uy, Initial residual = 0.119651548281, Final residual = 9.7901176237e-09, No Iterations 26
GAMG:  Solving for p, Initial residual = 0.0496036188125, Final residual = 0.000470582933953, No Iterations 96
GAMG:  Solving for p, Initial residual = 0.000185309618447, Final residual = 1.80231135558e-06, No Iterations 82
GAMG:  Solving for p, Initial residual = 2.42266952006e-06, Final residual = 9.60269108093e-08, No Iterations 56
time step continuity errors : sum local = 2.2289793065e-06, global = 2.12481843378e-07, cumulative = -2.72919625469e-07
smoothSolver:  Solving for epsilon, Initial residual = 0.0570095712017, Final residual = 8.63769828679e-09, No Iterations 23
smoothSolver:  Solving for k, Initial residual = 0.204167699061, Final residual = 8.32040273105e-09, No Iterations 27
ExecutionTime = 2.613353 s  ClockTime = 3 s

Time = 4s

smoothSolver:  Solving for Ux, Initial residual = 0.146035934394, Final residual = 9.67182678417e-09, No Iterations 27
smoothSolver:  Solving for Uy, Initial residual = 0.0638808239846, Final residual = 7.26551534572e-09, No Iterations 25
GAMG:  Solving for p, Initial residual = 0.0944934260423, Final residual = 0.000916381266914, No Iterations 83
GAMG:  Solving for p, Initial residual = 0.000199196668222, Final residual = 1.94947989816e-06, No Iterations 76
GAMG:  Solving for p, Initial residual = 2.73976693471e-06, Final residual = 9.72960495137e-08, No Iterations 53
time step continuity errors : sum local = 1.33114947371e-06, global = 1.3786276176e-07, cumulative = -1.35056863709e-07
smoothSolver:  Solving for epsilon, Initial residual = 0.0657184925879, Final residual = 9.04136292538e-09, No Iterations 24
smoothSolver:  Solving for k, Initial residual = 0.170615284629, Final residual = 7.46760282767e-09, No Iterations 27
ExecutionTime = 3.428737 s  ClockTime = 4 s

Time = 5s

smoothSolver:  Solving for Ux, Initial residual = 0.500265841768, Final residual = 9.17818088407e-09, No Iterations 29
smoothSolver:  Solving for Uy, Initial residual = 0.145123825757, Final residual = 5.94716630381e-09, No Iterations 27
GAMG:  Solving for p, Initial residual = 0.0282617055527, Final residual = 0.000274817805471, No Iterations 80
GAMG:  Solving for p, Initial residual = 0.000661274010433, Final residual = 6.51602655392e-06, No Iterations 77
GAMG:  Solving for p, Initial residual = 7.99094029545e-06, Final residual = 9.59730970993e-08, No Iterations 74
time step continuity errors : sum local = 3.0855140722e-07, global = 3.14061550229e-08, cumulative = -1.03650708686e-07
smoothSolver:  Solving for epsilon, Initial residual = 0.0702873840197, Final residual = 7.0075817646e-09, No Iterations 25
smoothSolver:  Solving for k, Initial residual = 0.12991341847, Final residual = 5.8438283839e-09, No Iterations 27
ExecutionTime = 4.321679 s  ClockTime = 5 s

Time = 6s

smoothSolver:  Solving for Ux, Initial residual = 0.759137689111, Final residual = 7.40679677346e-09, No Iterations 30
smoothSolver:  Solving for Uy, Initial residual = 0.0874750554924, Final residual = 7.75556696339e-09, No Iterations 26
GAMG:  Solving for p, Initial residual = 0.057933214054, Final residual = 0.000551093948453, No Iterations 84
GAMG:  Solving for p, Initial residual = 0.000189294041842, Final residual = 1.82937828205e-06, No Iterations 74
GAMG:  Solving for p, Initial residual = 2.50058444996e-06, Final residual = 9.98186674495e-08, No Iterations 49
time step continuity errors : sum local = 1.19074656384e-06, global = 1.29902121346e-07, cumulative = 2.62514126601e-08
smoothSolver:  Solving for epsilon, Initial residual = 0.075672665708, Final residual = 8.1490533873e-09, No Iterations 25
smoothSolver:  Solving for k, Initial residual = 0.109044283278, Final residual = 9.32350841026e-09, No Iterations 26
ExecutionTime = 5.146344 s  ClockTime = 6 s

Time = 7s

smoothSolver:  Solving for Ux, Initial residual = 0.633727471161, Final residual = 6.28719403538e-09, No Iterations 30
smoothSolver:  Solving for Uy, Initial residual = 0.105002442332, Final residual = 6.25024188201e-09, No Iterations 26
GAMG:  Solving for p, Initial residual = 0.0927324101318, Final residual = 0.000891286813212, No Iterations 72
GAMG:  Solving for p, Initial residual = 0.000219815720688, Final residual = 2.19253858458e-06, No Iterations 70
GAMG:  Solving for p, Initial residual = 2.77984640061e-06, Final residual = 9.4831331421e-08, No Iterations 51
time step continuity errors : sum local = 7.22069783023e-07, global = 8.36562624753e-08, cumulative = 1.09907675135e-07
smoothSolver:  Solving for epsilon, Initial residual = 0.078410957337, Final residual = 8.96965448441e-09, No Iterations 25
smoothSolver:  Solving for k, Initial residual = 0.0955199513442, Final residual = 8.19522644848e-09, No Iterations 26
ExecutionTime = 5.937907 s  ClockTime = 7 s

Time = 8s

smoothSolver:  Solving for Ux, Initial residual = 0.823175930667, Final residual = 8.05952750535e-09, No Iterations 30
smoothSolver:  Solving for Uy, Initial residual = 0.0843420522297, Final residual = 6.40623854567e-09, No Iterations 26
GAMG:  Solving for p, Initial residual = 0.0312890398992, Final residual = 0.000302414438096, No Iterations 74
GAMG:  Solving for p, Initial residual = 0.000588215929241, Final residual = 5.67511627324e-06, No Iterations 72
GAMG:  Solving for p, Initial residual = 6.68837719881e-06, Final residual = 9.43071069459e-08, No Iterations 67
time step continuity errors : sum local = 1.9581465298e-07, global = -2.2404053339e-08, cumulative = 8.75036217964e-08
smoothSolver:  Solving for epsilon, Initial residual = 0.0763850347896, Final residual = 9.26658828324e-09, No Iterations 25
smoothSolver:  Solving for k, Initial residual = 0.0827604777946, Final residual = 7.15420037788e-09, No Iterations 26
ExecutionTime = 6.890535 s  ClockTime = 8 s

Time = 9s

smoothSolver:  Solving for Ux, Initial residual = 0.420667904519, Final residual = 7.48253479072e-09, No Iterations 29
smoothSolver:  Solving for Uy, Initial residual = 0.0326609732876, Final residual = 5.59237058719e-09, No Iterations 25
GAMG:  Solving for p, Initial residual = 0.05423909906, Final residual = 0.000515532295629, No Iterations 84
GAMG:  Solving for p, Initial residual = 0.000177339527146, Final residual = 1.71773574551e-06, No Iterations 74
GAMG:  Solving for p, Initial residual = 2.16581823638e-06, Final residual = 9.77503028361e-08, No Iterations 48
time step continuity errors : sum local = 6.32250925879e-07, global = 6.93915649616e-08, cumulative = 1.56895186758e-07
smoothSolver:  Solving for epsilon, Initial residual = 0.0770106440408, Final residual = 9.47245328117e-09, No Iterations 25
smoothSolver:  Solving for k, Initial residual = 0.0760855667198, Final residual = 6.66512591358e-09, No Iterations 26
ExecutionTime = 7.844907 s  ClockTime = 8 s

Time = 10s

smoothSolver:  Solving for Ux, Initial residual = 0.125727330119, Final residual = 8.11488871258e-09, No Iterations 27
smoothSolver:  Solving for Uy, Initial residual = 0.0464510120492, Final residual = 9.91436760202e-09, No Iterations 24
GAMG:  Solving for p, Initial residual = 0.0899990474277, Final residual = 0.000858411608645, No Iterations 75
GAMG:  Solving for p, Initial residual = 0.000230328076037, Final residual = 2.18652799313e-06, No Iterations 77
GAMG:  Solving for p, Initial residual = 2.78815349192e-06, Final residual = 9.90655959771e-08, No Iterations 54
time step continuity errors : sum local = 3.98631925686e-07, global = 4.11620705358e-08, cumulative = 1.98057257294e-07
smoothSolver:  Solving for epsilon, Initial residual = 0.0850642503647, Final residual = 5.58136042093e-09, No Iterations 26
smoothSolver:  Solving for k, Initial residual = 0.07153818977, Final residual = 6.2689749479e-09, No Iterations 26
ExecutionTime = 8.871565 s  ClockTime = 10 s

Time = 11s

smoothSolver:  Solving for Ux, Initial residual = 0.328601961515, Final residual = 6.02331206102e-09, No Iterations 29
smoothSolver:  Solving for Uy, Initial residual = 0.0395461092872, Final residual = 9.51122899864e-09, No Iterations 24
GAMG:  Solving for p, Initial residual = 0.0422869194952, Final residual = 0.000406815548286, No Iterations 73
GAMG:  Solving for p, Initial residual = 0.000916246747598, Final residual = 9.04782150571e-06, No Iterations 77
GAMG:  Solving for p, Initial residual = 1.02709244292e-05, Final residual = 1.00594833104e-07, No Iterations 79
time step continuity errors : sum local = 9.83313013264e-08, global = 1.00763262707e-08, cumulative = 2.08133583565e-07
smoothSolver:  Solving for epsilon, Initial residual = 0.0985499152428, Final residual = 6.54244988511e-09, No Iterations 26
smoothSolver:  Solving for k, Initial residual = 0.0657036358425, Final residual = 5.8081354765e-09, No Iterations 26
ExecutionTime = 10.054278 s  ClockTime = 11 s

Time = 12s

smoothSolver:  Solving for Ux, Initial residual = 0.284494899235, Final residual = 9.49631643373e-09, No Iterations 28
smoothSolver:  Solving for Uy, Initial residual = 0.0343273012645, Final residual = 8.95492885279e-09, No Iterations 24
GAMG:  Solving for p, Initial residual = 0.0683140078566, Final residual = 0.000644822163053, No Iterations 81
GAMG:  Solving for p, Initial residual = 0.000212717821846, Final residual = 2.08345964127e-06, No Iterations 76
GAMG:  Solving for p, Initial residual = 2.53608218316e-06, Final residual = 9.88088338214e-08, No Iterations 52
time step continuity errors : sum local = 3.37905387353e-07, global = 3.61858710184e-08, cumulative = 2.44319454583e-07
smoothSolver:  Solving for epsilon, Initial residual = 0.111059530736, Final residual = 7.47188369214e-09, No Iterations 26
smoothSolver:  Solving for k, Initial residual = 0.061258805005, Final residual = 5.45848290464e-09, No Iterations 26
ExecutionTime = 10.995461 s  ClockTime = 12 s

Time = 13s

smoothSolver:  Solving for Ux, Initial residual = 0.170707248016, Final residual = 5.78843766541e-09, No Iterations 28
smoothSolver:  Solving for Uy, Initial residual = 0.0389554139606, Final residual = 8.99204828443e-09, No Iterations 24
GAMG:  Solving for p, Initial residual = 0.122012670639, Final residual = 0.00118836500112, No Iterations 69
GAMG:  Solving for p, Initial residual = 0.00026447114055, Final residual = 2.55933944976e-06, No Iterations 75
GAMG:  Solving for p, Initial residual = 3.1340628081e-06, Final residual = 9.74888534376e-08, No Iterations 55
time step continuity errors : sum local = 2.18975259012e-07, global = 2.3992801539e-08, cumulative = 2.68312256122e-07
smoothSolver:  Solving for epsilon, Initial residual = 0.116365215671, Final residual = 8.00148019594e-09, No Iterations 26
smoothSolver:  Solving for k, Initial residual = 0.0578163417743, Final residual = 9.59546457098e-09, No Iterations 25
ExecutionTime = 11.900836 s  ClockTime = 13 s

Time = 14s

smoothSolver:  Solving for Ux, Initial residual = 0.373484427896, Final residual = 6.79172745806e-09, No Iterations 29
smoothSolver:  Solving for Uy, Initial residual = 0.0211087628726, Final residual = 9.97639036915e-09, No Iterations 23
GAMG:  Solving for p, Initial residual = 0.0482139794819, Final residual = 0.000460947735632, No Iterations 67
GAMG:  Solving for p, Initial residual = 0.00112824127574, Final residual = 1.11978864463e-05, No Iterations 74
GAMG:  Solving for p, Initial residual = 1.28713917623e-05, Final residual = 1.22737571894e-07, No Iterations 76
time step continuity errors : sum local = 5.77432572116e-08, global = -6.28776082371e-09, cumulative = 2.62024495298e-07
smoothSolver:  Solving for epsilon, Initial residual = 0.11638786645, Final residual = 8.15674729414e-09, No Iterations 26
smoothSolver:  Solving for k, Initial residual = 0.0543579342206, Final residual = 9.0895471784e-09, No Iterations 25
ExecutionTime = 12.888728 s  ClockTime = 14 s

Time = 15s

smoothSolver:  Solving for Ux, Initial residual = 0.165311811913, Final residual = 5.45066891119e-09, No Iterations 28
smoothSolver:  Solving for Uy, Initial residual = 0.020440683451, Final residual = 5.65515980045e-09, No Iterations 24
GAMG:  Solving for p, Initial residual = 0.0666328962077, Final residual = 0.000659547365281, No Iterations 79
GAMG:  Solving for p, Initial residual = 0.000248041733408, Final residual = 2.35909871485e-06, No Iterations 77
GAMG:  Solving for p, Initial residual = 2.84973171077e-06, Final residual = 9.50590253295e-08, No Iterations 55
time step continuity errors : sum local = 1.68289496227e-07, global = -1.78848275016e-08, cumulative = 2.44139667797e-07
smoothSolver:  Solving for epsilon, Initial residual = 0.118209706944, Final residual = 8.35876114403e-09, No Iterations 26
smoothSolver:  Solving for k, Initial residual = 0.0516321072754, Final residual = 8.68368811759e-09, No Iterations 25
ExecutionTime = 13.803306 s  ClockTime = 14 s

Time = 16s

smoothSolver:  Solving for Ux, Initial residual = 0.041005730072, Final residual = 9.2389815167e-09, No Iterations 25
smoothSolver:  Solving for Uy, Initial residual = 0.0204846736226, Final residual = 9.0586940718e-09, No Iterations 23
GAMG:  Solving for p, Initial residual = 0.170351888656, Final residual = 0.0016395171105, No Iterations 69
GAMG:  Solving for p, Initial residual = 0.000303441130715, Final residual = 2.93254108989e-06, No Iterations 78
GAMG:  Solving for p, Initial residual = 3.56321490822e-06, Final residual = 9.95854743908e-08, No Iterations 59
time step continuity errors : sum local = 1.19328769583e-07, global = 1.24001256579e-08, cumulative = 2.56539793455e-07
smoothSolver:  Solving for epsilon, Initial residual = 0.124733787542, Final residual = 8.86912359856e-09, No Iterations 26
smoothSolver:  Solving for k, Initial residual = 0.0493432516644, Final residual = 8.32695877948e-09, No Iterations 25
ExecutionTime = 14.88532 s  ClockTime = 16 s

Time = 17s

smoothSolver:  Solving for Ux, Initial residual = 0.129551660362, Final residual = 8.19797147792e-09, No Iterations 27
smoothSolver:  Solving for Uy, Initial residual = 0.0139690310272, Final residual = 5.91757361006e-09, No Iterations 23
GAMG:  Solving for p, Initial residual = 0.0609037966762, Final residual = 0.000590523075089, No Iterations 64
GAMG:  Solving for p, Initial residual = 0.00156154844679, Final residual = 1.49442771766e-05, No Iterations 77
GAMG:  Solving for p, Initial residual = 1.69975890384e-05, Final residual = 1.67585643397e-07, No Iterations 78
time step continuity errors : sum local = 3.66714474924e-08, global = 3.78521191542e-09, cumulative = 2.6032500537e-07
smoothSolver:  Solving for epsilon, Initial residual = 0.133603094142, Final residual = 9.57178684039e-09, No Iterations 26
smoothSolver:  Solving for k, Initial residual = 0.0470886664627, Final residual = 7.98750579917e-09, No Iterations 25
ExecutionTime = 15.847736 s  ClockTime = 17 s

Time = 18s

smoothSolver:  Solving for Ux, Initial residual = 0.0897633854302, Final residual = 5.60073941889e-09, No Iterations 27
smoothSolver:  Solving for Uy, Initial residual = 0.0178945296051, Final residual = 8.82238593131e-09, No Iterations 23
GAMG:  Solving for p, Initial residual = 0.0816005915641, Final residual = 0.00079068450559, No Iterations 77
GAMG:  Solving for p, Initial residual = 0.000281968627912, Final residual = 2.69368835032e-06, No Iterations 78
GAMG:  Solving for p, Initial residual = 3.13228693902e-06, Final residual = 9.52614037362e-08, No Iterations 58
time step continuity errors : sum local = 8.93616393559e-08, global = 9.338681029e-09, cumulative = 2.69663686399e-07
smoothSolver:  Solving for epsilon, Initial residual = 0.140064323546, Final residual = 5.40894956214e-09, No Iterations 27
smoothSolver:  Solving for k, Initial residual = 0.0450178805604, Final residual = 7.67837720545e-09, No Iterations 25
ExecutionTime = 16.784519 s  ClockTime = 17 s

Time = 19s

smoothSolver:  Solving for Ux, Initial residual = 0.0362644084497, Final residual = 7.16186787389e-09, No Iterations 25
smoothSolver:  Solving for Uy, Initial residual = 0.014170758342, Final residual = 6.53454716413e-09, No Iterations 23
GAMG:  Solving for p, Initial residual = 0.170104577912, Final residual = 0.00162054807684, No Iterations 67
GAMG:  Solving for p, Initial residual = 0.000308655189196, Final residual = 3.0416899314e-06, No Iterations 78
GAMG:  Solving for p, Initial residual = 3.56846534456e-06, Final residual = 9.53937499535e-08, No Iterations 60
time step continuity errors : sum local = 6.56315551052e-08, global = 6.9083146661e-09, cumulative = 2.76572001065e-07
smoothSolver:  Solving for epsilon, Initial residual = 0.142078955952, Final residual = 5.55045582256e-09, No Iterations 27
smoothSolver:  Solving for k, Initial residual = 0.0432495692526, Final residual = 7.40244948651e-09, No Iterations 25
ExecutionTime = 17.703513 s  ClockTime = 18 s

Time = 20s

smoothSolver:  Solving for Ux, Initial residual = 0.0963335877856, Final residual = 5.99212166362e-09, No Iterations 27
smoothSolver:  Solving for Uy, Initial residual = 0.00843502965321, Final residual = 8.02928794081e-09, No Iterations 22
GAMG:  Solving for p, Initial residual = 0.0604391548413, Final residual = 0.00058939369127, No Iterations 60
GAMG:  Solving for p, Initial residual = 0.00278088260351, Final residual = 2.62811315449e-05, No Iterations 77
GAMG:  Solving for p, Initial residual = 3.09153937912e-05, Final residual = 3.01586471978e-07, No Iterations 77
time step continuity errors : sum local = 2.11690332615e-08, global = 2.20454455995e-09, cumulative = 2.78776545625e-07
smoothSolver:  Solving for epsilon, Initial residual = 0.141790642265, Final residual = 5.59627850809e-09, No Iterations 27
smoothSolver:  Solving for k, Initial residual = 0.04159152104, Final residual = 7.15116877277e-09, No Iterations 25
ExecutionTime = 18.677431 s  ClockTime = 19 s

Time = 21s

smoothSolver:  Solving for Ux, Initial residual = 0.0597729264997, Final residual = 6.74767712074e-09, No Iterations 26
smoothSolver:  Solving for Uy, Initial residual = 0.00972361763122, Final residual = 9.57456483025e-09, No Iterations 22
GAMG:  Solving for p, Initial residual = 0.0715137014155, Final residual = 0.000705571180604, No Iterations 75
GAMG:  Solving for p, Initial residual = 0.000339055684263, Final residual = 3.33053659559e-06, No Iterations 78
GAMG:  Solving for p, Initial residual = 3.93182660658e-06, Final residual = 9.54550212206e-08, No Iterations 62
time step continuity errors : sum local = 4.4448961047e-08, global = -4.60864069961e-09, cumulative = 2.74167904925e-07
smoothSolver:  Solving for epsilon, Initial residual = 0.142601761451, Final residual = 5.6724908847e-09, No Iterations 27
smoothSolver:  Solving for k, Initial residual = 0.040140379991, Final residual = 6.92354453923e-09, No Iterations 25
ExecutionTime = 19.632434 s  ClockTime = 20 s

Time = 22s

smoothSolver:  Solving for Ux, Initial residual = 0.00871746495324, Final residual = 5.49914081028e-09, No Iterations 23
smoothSolver:  Solving for Uy, Initial residual = 0.00718167348508, Final residual = 6.28443739494e-09, No Iterations 22
GAMG:  Solving for p, Initial residual = 0.340083623076, Final residual = 0.00321504722357, No Iterations 67
GAMG:  Solving for p, Initial residual = 0.000359962976674, Final residual = 3.56498791251e-06, No Iterations 79
GAMG:  Solving for p, Initial residual = 4.23181931319e-06, Final residual = 9.93858813622e-08, No Iterations 63
time step continuity errors : sum local = 3.54651337925e-08, global = -3.65512777112e-09, cumulative = 2.70512777154e-07
smoothSolver:  Solving for epsilon, Initial residual = 0.145892408719, Final residual = 5.84157391792e-09, No Iterations 27
smoothSolver:  Solving for k, Initial residual = 0.0387997412286, Final residual = 6.71522956383e-09, No Iterations 25
ExecutionTime = 20.534623 s  ClockTime = 21 s

Time = 23s

smoothSolver:  Solving for Ux, Initial residual = 0.0376305624564, Final residual = 8.25332194724e-09, No Iterations 25
smoothSolver:  Solving for Uy, Initial residual = 0.0073108002263, Final residual = 6.4260434138e-09, No Iterations 22
GAMG:  Solving for p, Initial residual = 0.0807303889968, Final residual = 0.000787908643757, No Iterations 55
GAMG:  Solving for p, Initial residual = 0.0028143877681, Final residual = 2.77027521062e-05, No Iterations 77
GAMG:  Solving for p, Initial residual = 3.16290689374e-05, Final residual = 3.00192174193e-07, No Iterations 79
time step continuity errors : sum local = 1.26961200139e-08, global = 1.29211030789e-09, cumulative = 2.71804887462e-07
smoothSolver:  Solving for epsilon, Initial residual = 0.150566378759, Final residual = 6.07005421444e-09, No Iterations 27
smoothSolver:  Solving for k, Initial residual = 0.0375278515234, Final residual = 6.52000635698e-09, No Iterations 25
ExecutionTime = 21.46463 s  ClockTime = 22 s

Time = 24s

smoothSolver:  Solving for Ux, Initial residual = 0.0264209150869, Final residual = 5.71351117346e-09, No Iterations 25
smoothSolver:  Solving for Uy, Initial residual = 0.00769768120789, Final residual = 7.28521741768e-09, No Iterations 22
GAMG:  Solving for p, Initial residual = 0.095914612083, Final residual = 0.000952672968229, No Iterations 72
GAMG:  Solving for p, Initial residual = 0.000376520503437, Final residual = 3.61977438163e-06, No Iterations 79
GAMG:  Solving for p, Initial residual = 4.05941087478e-06, Final residual = 9.57983027715e-08, No Iterations 64
time step continuity errors : sum local = 2.49615487506e-08, global = 2.5566640852e-09, cumulative = 2.74361551547e-07
smoothSolver:  Solving for epsilon, Initial residual = 0.154570280981, Final residual = 6.27860552528e-09, No Iterations 27
smoothSolver:  Solving for k, Initial residual = 0.0363200961943, Final residual = 6.33481246031e-09, No Iterations 25
ExecutionTime = 22.385676 s  ClockTime = 23 s

Time = 25s

smoothSolver:  Solving for Ux, Initial residual = 0.0127933056589, Final residual = 6.94565848615e-09, No Iterations 23
smoothSolver:  Solving for Uy, Initial residual = 0.00545668593597, Final residual = 9.66072607e-09, No Iterations 21
GAMG:  Solving for p, Initial residual = 0.171071022053, Final residual = 0.00167717770643, No Iterations 65
GAMG:  Solving for p, Initial residual = 0.000351338995319, Final residual = 3.43895414971e-06, No Iterations 80
GAMG:  Solving for p, Initial residual = 3.89381577573e-06, Final residual = 9.76158838876e-08, No Iterations 63
time step continuity errors : sum local = 2.15294444799e-08, global = -2.20633498829e-09, cumulative = 2.72155216559e-07
smoothSolver:  Solving for epsilon, Initial residual = 0.156884710002, Final residual = 6.4221897437e-09, No Iterations 27
smoothSolver:  Solving for k, Initial residual = 0.0352128618241, Final residual = 6.16386459612e-09, No Iterations 25
ExecutionTime = 23.268212 s  ClockTime = 24 s

Time = 26s

smoothSolver:  Solving for Ux, Initial residual = 0.0284126273199, Final residual = 6.00359782262e-09, No Iterations 25
smoothSolver:  Solving for Uy, Initial residual = 0.00399193218925, Final residual = 7.39401846876e-09, No Iterations 21
GAMG:  Solving for p, Initial residual = 0.0640507154665, Final residual = 0.000635749486764, No Iterations 50
GAMG:  Solving for p, Initial residual = 0.00154619374743, Final residual = 1.49484089046e-05, No Iterations 78
GAMG:  Solving for p, Initial residual = 1.85216023117e-05, Final residual = 1.83981307753e-07, No Iterations 77
time step continuity errors : sum local = 7.87928126596e-09, global = -7.94213076231e-10, cumulative = 2.71361003483e-07
smoothSolver:  Solving for epsilon, Initial residual = 0.158155016631, Final residual = 6.52161840579e-09, No Iterations 27
smoothSolver:  Solving for k, Initial residual = 0.0341968886558, Final residual = 6.00551892745e-09, No Iterations 25
ExecutionTime = 24.144455 s  ClockTime = 25 s

Time = 27s

smoothSolver:  Solving for Ux, Initial residual = 0.0220175138381, Final residual = 8.47321591712e-09, No Iterations 24
smoothSolver:  Solving for Uy, Initial residual = 0.00371604001848, Final residual = 6.65017525547e-09, No Iterations 21
GAMG:  Solving for p, Initial residual = 0.0636815851179, Final residual = 0.000623606937294, No Iterations 71
GAMG:  Solving for p, Initial residual = 0.000455878337261, Final residual = 4.53236220386e-06, No Iterations 79
GAMG:  Solving for p, Initial residual = 5.35946551811e-06, Final residual = 9.79581874126e-08, No Iterations 68
time step continuity errors : sum local = 1.17127678788e-08, global = 1.18897926395e-09, cumulative = 2.72549982747e-07
smoothSolver:  Solving for epsilon, Initial residual = 0.158573894965, Final residual = 6.58177041127e-09, No Iterations 27
smoothSolver:  Solving for k, Initial residual = 0.0332562687031, Final residual = 5.85835373252e-09, No Iterations 25
ExecutionTime = 25.105926 s  ClockTime = 26 s

Time = 28s

smoothSolver:  Solving for Ux, Initial residual = 0.00862403369013, Final residual = 9.94539739009e-09, No Iterations 22
smoothSolver:  Solving for Uy, Initial residual = 0.00356677964568, Final residual = 6.17139764701e-09, No Iterations 21
GAMG:  Solving for p, Initial residual = 0.149810657982, Final residual = 0.00148730651168, No Iterations 65
GAMG:  Solving for p, Initial residual = 0.00044329019766, Final residual = 4.40045963816e-06, No Iterations 80
GAMG:  Solving for p, Initial residual = 5.23770743793e-06, Final residual = 9.73864547237e-08, No Iterations 68
time step continuity errors : sum local = 1.03578224953e-08, global = -1.05050774171e-09, cumulative = 2.71499475005e-07
smoothSolver:  Solving for epsilon, Initial residual = 0.155395396312, Final residual = 6.48886983308e-09, No Iterations 27
smoothSolver:  Solving for k, Initial residual = 0.0323630552703, Final residual = 5.71869030205e-09, No Iterations 25
ExecutionTime = 26.02495 s  ClockTime = 27 s

Time = 29s

smoothSolver:  Solving for Ux, Initial residual = 0.00878400215615, Final residual = 6.35975106096e-09, No Iterations 23
smoothSolver:  Solving for Uy, Initial residual = 0.00403357713626, Final residual = 7.20395574374e-09, No Iterations 21
GAMG:  Solving for p, Initial residual = 0.102803765243, Final residual = 0.00101077633879, No Iterations 40
GAMG:  Solving for p, Initial residual = 0.00227253037029, Final residual = 2.19780607369e-05, No Iterations 77
GAMG:  Solving for p, Initial residual = 2.60304934479e-05, Final residual = 2.58482703554e-07, No Iterations 78
time step continuity errors : sum local = 4.6494732044e-09, global = 4.55380108385e-10, cumulative = 2.71954855113e-07
smoothSolver:  Solving for epsilon, Initial residual = 0.152426746562, Final residual = 6.40294098806e-09, No Iterations 27
smoothSolver:  Solving for k, Initial residual = 0.0315139601091, Final residual = 5.58627441169e-09, No Iterations 25
ExecutionTime = 26.915134 s  ClockTime = 28 s

Time = 30s

smoothSolver:  Solving for Ux, Initial residual = 0.00767721370605, Final residual = 9.47917771464e-09, No Iterations 22
smoothSolver:  Solving for Uy, Initial residual = 0.00355253784662, Final residual = 6.63506396288e-09, No Iterations 21
GAMG:  Solving for p, Initial residual = 0.102647207921, Final residual = 0.00101215429343, No Iterations 67
GAMG:  Solving for p, Initial residual = 0.000423708789193, Final residual = 4.03068411034e-06, No Iterations 80
GAMG:  Solving for p, Initial residual = 4.39514043623e-06, Final residual = 9.50131942951e-08, No Iterations 67
time step continuity errors : sum local = 7.73748033321e-09, global = -7.79028360879e-10, cumulative = 2.71175826753e-07
smoothSolver:  Solving for epsilon, Initial residual = 0.149317736893, Final residual = 6.31038607043e-09, No Iterations 27
smoothSolver:  Solving for k, Initial residual = 0.0307136263854, Final residual = 5.46153980203e-09, No Iterations 25
ExecutionTime = 27.838747 s  ClockTime = 29 s

Time = 31s

smoothSolver:  Solving for Ux, Initial residual = 0.00805162140053, Final residual = 9.0516221391e-09, No Iterations 22
smoothSolver:  Solving for Uy, Initial residual = 0.00270163467233, Final residual = 9.34000809641e-09, No Iterations 20
GAMG:  Solving for p, Initial residual = 0.0985297200906, Final residual = 0.000927657444597, No Iterations 64
GAMG:  Solving for p, Initial residual = 0.00033135404749, Final residual = 3.24484644554e-06, No Iterations 81
GAMG:  Solving for p, Initial residual = 3.52348180344e-06, Final residual = 9.74107828127e-08, No Iterations 63
time step continuity errors : sum local = 7.77033435213e-09, global = -7.82114425095e-10, cumulative = 2.70393712327e-07
smoothSolver:  Solving for epsilon, Initial residual = 0.145988277502, Final residual = 6.20697619189e-09, No Iterations 27
smoothSolver:  Solving for k, Initial residual = 0.0299623624906, Final residual = 9.93058026512e-09, No Iterations 24
ExecutionTime = 28.728073 s  ClockTime = 29 s

Time = 32s

smoothSolver:  Solving for Ux, Initial residual = 0.0115447950026, Final residual = 7.24366341997e-09, No Iterations 23
smoothSolver:  Solving for Uy, Initial residual = 0.00220261902623, Final residual = 7.35360953114e-09, No Iterations 20
GAMG:  Solving for p, Initial residual = 0.05026155637, Final residual = 0.000500196345795, No Iterations 34
GAMG:  Solving for p, Initial residual = 0.000641071482223, Final residual = 6.15485922299e-06, No Iterations 77
GAMG:  Solving for p, Initial residual = 8.43999522014e-06, Final residual = 9.82005218644e-08, No Iterations 72
time step continuity errors : sum local = 3.45526808067e-09, global = -3.23766423396e-10, cumulative = 2.70069945904e-07
smoothSolver:  Solving for epsilon, Initial residual = 0.141261961372, Final residual = 6.04108196404e-09, No Iterations 27
smoothSolver:  Solving for k, Initial residual = 0.0292469995823, Final residual = 9.72054728834e-09, No Iterations 24
ExecutionTime = 29.520284 s  ClockTime = 30 s

Time = 33s

smoothSolver:  Solving for Ux, Initial residual = 0.010677242274, Final residual = 6.87509742844e-09, No Iterations 23
smoothSolver:  Solving for Uy, Initial residual = 0.00202141783099, Final residual = 6.68736382502e-09, No Iterations 20
GAMG:  Solving for p, Initial residual = 0.0446793332755, Final residual = 0.000427998925134, No Iterations 66
GAMG:  Solving for p, Initial residual = 0.000591620590292, Final residual = 5.87420608834e-06, No Iterations 80
GAMG:  Solving for p, Initial residual = 7.15695823991e-06, Final residual = 9.61475001312e-08, No Iterations 74
time step continuity errors : sum local = 3.09786704355e-09, global = 3.0979472416e-10, cumulative = 2.70379740628e-07
smoothSolver:  Solving for epsilon, Initial residual = 0.134995562241, Final residual = 5.80505448208e-09, No Iterations 27
smoothSolver:  Solving for k, Initial residual = 0.0285696787106, Final residual = 9.52104509812e-09, No Iterations 24
ExecutionTime = 30.499478 s  ClockTime = 31 s

Time = 34s

smoothSolver:  Solving for Ux, Initial residual = 0.00787407094499, Final residual = 9.27701417308e-09, No Iterations 22
smoothSolver:  Solving for Uy, Initial residual = 0.00241737365876, Final residual = 8.18836172059e-09, No Iterations 20
GAMG:  Solving for p, Initial residual = 0.0587992655366, Final residual = 0.000584065618581, No Iterations 63
GAMG:  Solving for p, Initial residual = 0.000520533020624, Final residual = 5.01491125339e-06, No Iterations 81
GAMG:  Solving for p, Initial residual = 6.17307611963e-06, Final residual = 9.89886401347e-08, No Iterations 71
time step continuity errors : sum local = 3.35212182859e-09, global = -3.3474721926e-10, cumulative = 2.70044993409e-07
smoothSolver:  Solving for epsilon, Initial residual = 0.129143114993, Final residual = 5.58278247731e-09, No Iterations 27
smoothSolver:  Solving for k, Initial residual = 0.0279281220278, Final residual = 9.33197317549e-09, No Iterations 24
ExecutionTime = 31.425942 s  ClockTime = 32 s

Time = 35s

smoothSolver:  Solving for Ux, Initial residual = 0.0060695813046, Final residual = 7.10669004377e-09, No Iterations 22
smoothSolver:  Solving for Uy, Initial residual = 0.00249761352629, Final residual = 8.73234564682e-09, No Iterations 20
GAMG:  Solving for p, Initial residual = 0.0764621124822, Final residual = 0.000737130538592, No Iterations 21
GAMG:  Solving for p, Initial residual = 0.000913549260304, Final residual = 8.93307751553e-06, No Iterations 80
GAMG:  Solving for p, Initial residual = 1.00047995759e-05, Final residual = 9.91890438232e-08, No Iterations 82
time step continuity errors : sum local = 1.63547224437e-09, global = -1.61886164669e-10, cumulative = 2.69883107244e-07
smoothSolver:  Solving for epsilon, Initial residual = 0.123729473068, Final residual = 5.37640009263e-09, No Iterations 27
smoothSolver:  Solving for k, Initial residual = 0.0273185288302, Final residual = 9.15235248067e-09, No Iterations 24
ExecutionTime = 32.17879 s  ClockTime = 33 s

Time = 36s

smoothSolver:  Solving for Ux, Initial residual = 0.00595843280534, Final residual = 6.95619845754e-09, No Iterations 22
smoothSolver:  Solving for Uy, Initial residual = 0.00218981727479, Final residual = 7.71683418328e-09, No Iterations 20
GAMG:  Solving for p, Initial residual = 0.0669742510799, Final residual = 0.000664880130701, No Iterations 59
GAMG:  Solving for p, Initial residual = 0.000373956498745, Final residual = 3.64664146442e-06, No Iterations 80
GAMG:  Solving for p, Initial residual = 4.0665694457e-06, Final residual = 9.58669077976e-08, No Iterations 66
time step continuity errors : sum local = 3.39992489784e-09, global = 3.37941758717e-10, cumulative = 2.70221049003e-07
smoothSolver:  Solving for epsilon, Initial residual = 0.118731315515, Final residual = 9.68280059343e-09, No Iterations 26
smoothSolver:  Solving for k, Initial residual = 0.0267389346737, Final residual = 8.98146191124e-09, No Iterations 24
ExecutionTime = 33.077419 s  ClockTime = 34 s

Time = 37s

smoothSolver:  Solving for Ux, Initial residual = 0.00682788886092, Final residual = 8.0245569508e-09, No Iterations 22
smoothSolver:  Solving for Uy, Initial residual = 0.00186236922395, Final residual = 6.49288603428e-09, No Iterations 20
GAMG:  Solving for p, Initial residual = 0.0426065916786, Final residual = 0.000405317228348, No Iterations 60
GAMG:  Solving for p, Initial residual = 0.000273450094255, Final residual = 2.58862065671e-06, No Iterations 82
GAMG:  Solving for p, Initial residual = 2.89648815349e-06, Final residual = 9.63654612341e-08, No Iterations 60
time step continuity errors : sum local = 3.63242174134e-09, global = -3.60218175609e-10, cumulative = 2.69860830827e-07
smoothSolver:  Solving for epsilon, Initial residual = 0.114079858195, Final residual = 9.34878538088e-09, No Iterations 26
smoothSolver:  Solving for k, Initial residual = 0.0261881769053, Final residual = 8.81877981605e-09, No Iterations 24
ExecutionTime = 33.955982 s  ClockTime = 35 s

Time = 38s

smoothSolver:  Solving for Ux, Initial residual = 0.00760163245713, Final residual = 9.05693982992e-09, No Iterations 22
smoothSolver:  Solving for Uy, Initial residual = 0.00161946107538, Final residual = 5.52566313522e-09, No Iterations 20
GAMG:  Solving for p, Initial residual = 0.030040060939, Final residual = 0.000299091361362, No Iterations 24
GAMG:  Solving for p, Initial residual = 0.000330377569418, Final residual = 3.16688656387e-06, No Iterations 80
GAMG:  Solving for p, Initial residual = 4.24373348415e-06, Final residual = 9.83166527025e-08, No Iterations 63
time step continuity errors : sum local = 2.65085307785e-09, global = -2.47311468711e-10, cumulative = 2.69613519359e-07
smoothSolver:  Solving for epsilon, Initial residual = 0.109801652713, Final residual = 9.04089039025e-09, No Iterations 26
smoothSolver:  Solving for k, Initial residual = 0.0256645135718, Final residual = 8.66374072396e-09, No Iterations 24
ExecutionTime = 34.624218 s  ClockTime = 35 s

Time = 39s

smoothSolver:  Solving for Ux, Initial residual = 0.00752162464614, Final residual = 9.03374519354e-09, No Iterations 22
smoothSolver:  Solving for Uy, Initial residual = 0.00172538504731, Final residual = 5.9343627879e-09, No Iterations 20
GAMG:  Solving for p, Initial residual = 0.0264323316769, Final residual = 0.00025317974048, No Iterations 58
GAMG:  Solving for p, Initial residual = 0.000485237886189, Final residual = 4.62374110743e-06, No Iterations 81
GAMG:  Solving for p, Initial residual = 6.0365315167e-06, Final residual = 9.96787393319e-08, No Iterations 70
time step continuity errors : sum local = 1.62208810262e-09, global = -1.60425930607e-10, cumulative = 2.69453093428e-07
smoothSolver:  Solving for epsilon, Initial residual = 0.105871842877, Final residual = 8.75734948576e-09, No Iterations 26
smoothSolver:  Solving for k, Initial residual = 0.0251606258775, Final residual = 8.51405257277e-09, No Iterations 24
ExecutionTime = 35.548843 s  ClockTime = 36 s

Time = 40s

smoothSolver:  Solving for Ux, Initial residual = 0.00684646253638, Final residual = 8.21307737582e-09, No Iterations 22
smoothSolver:  Solving for Uy, Initial residual = 0.00188199905568, Final residual = 6.65040110696e-09, No Iterations 20
GAMG:  Solving for p, Initial residual = 0.027713065966, Final residual = 0.00026758568031, No Iterations 59
GAMG:  Solving for p, Initial residual = 0.000545500826782, Final residual = 5.16345839733e-06, No Iterations 81
GAMG:  Solving for p, Initial residual = 6.74013851623e-06, Final residual = 9.60252446838e-08, No Iterations 73
time step continuity errors : sum local = 1.33503491349e-09, global = -1.31540445586e-10, cumulative = 2.69321552982e-07
smoothSolver:  Solving for epsilon, Initial residual = 0.10225097924, Final residual = 8.49550672745e-09, No Iterations 26
smoothSolver:  Solving for k, Initial residual = 0.0246768492788, Final residual = 8.37003839761e-09, No Iterations 24
ExecutionTime = 36.454769 s  ClockTime = 37 s

Time = 41s

smoothSolver:  Solving for Ux, Initial residual = 0.00623683596512, Final residual = 7.49153375616e-09, No Iterations 22
smoothSolver:  Solving for Uy, Initial residual = 0.00183880625655, Final residual = 6.58073472863e-09, No Iterations 20
GAMG:  Solving for p, Initial residual = 0.0282159707195, Final residual = 0.000273755575069, No Iterations 38
GAMG:  Solving for p, Initial residual = 0.000377591809022, Final residual = 3.65537731325e-06, No Iterations 80
GAMG:  Solving for p, Initial residual = 4.85402626521e-06, Final residual = 9.97864359419e-08, No Iterations 66
time step continuity errors : sum local = 1.84639073762e-09, global = 1.83210284809e-10, cumulative = 2.69504763267e-07
smoothSolver:  Solving for epsilon, Initial residual = 0.0988944454757, Final residual = 8.25234781533e-09, No Iterations 26
smoothSolver:  Solving for k, Initial residual = 0.0242141542643, Final residual = 8.23216261997e-09, No Iterations 24
ExecutionTime = 37.235294 s  ClockTime = 38 s

Time = 42s

smoothSolver:  Solving for Ux, Initial residual = 0.00606307489137, Final residual = 7.28317879389e-09, No Iterations 22
smoothSolver:  Solving for Uy, Initial residual = 0.00169864620278, Final residual = 6.06428994715e-09, No Iterations 20
GAMG:  Solving for p, Initial residual = 0.0257583666364, Final residual = 0.000254960375158, No Iterations 44
GAMG:  Solving for p, Initial residual = 0.000266619248472, Final residual = 2.59641837864e-06, No Iterations 80
GAMG:  Solving for p, Initial residual = 3.06632028548e-06, Final residual = 9.54359925956e-08, No Iterations 61
time step continuity errors : sum local = 2.26520115975e-09, global = 2.24914113509e-10, cumulative = 2.69729677381e-07
smoothSolver:  Solving for epsilon, Initial residual = 0.0957484965915, Final residual = 8.02389599304e-09, No Iterations 26
smoothSolver:  Solving for k, Initial residual = 0.0237712409492, Final residual = 8.10002470231e-09, No Iterations 24
ExecutionTime = 38.116977 s  ClockTime = 39 s

Time = 43s

smoothSolver:  Solving for Ux, Initial residual = 0.00618689401525, Final residual = 7.46850847835e-09, No Iterations 22
smoothSolver:  Solving for Uy, Initial residual = 0.00156518076131, Final residual = 5.53107922437e-09, No Iterations 20
GAMG:  Solving for p, Initial residual = 0.0214956042495, Final residual = 0.000203181870445, No Iterations 50
GAMG:  Solving for p, Initial residual = 0.000209080946089, Final residual = 2.05309102327e-06, No Iterations 81
GAMG:  Solving for p, Initial residual = 2.44883977261e-06, Final residual = 9.90195861332e-08, No Iterations 56
time step continuity errors : sum local = 2.47248692431e-09, global = 2.41879070545e-10, cumulative = 2.69971556451e-07
smoothSolver:  Solving for epsilon, Initial residual = 0.0928076360132, Final residual = 7.80996472711e-09, No Iterations 26
smoothSolver:  Solving for k, Initial residual = 0.0233468218204, Final residual = 7.97319884138e-09, No Iterations 24
ExecutionTime = 38.980999 s  ClockTime = 40 s

Time = 44s

smoothSolver:  Solving for Ux, Initial residual = 0.00633015086024, Final residual = 7.69118568168e-09, No Iterations 22
smoothSolver:  Solving for Uy, Initial residual = 0.00151693115254, Final residual = 9.88922229107e-09, No Iterations 19
GAMG:  Solving for p, Initial residual = 0.0185407358456, Final residual = 0.0001817294931, No Iterations 25
GAMG:  Solving for p, Initial residual = 0.00021496990741, Final residual = 2.13370211663e-06, No Iterations 79
GAMG:  Solving for p, Initial residual = 2.76201931522e-06, Final residual = 9.66855028065e-08, No Iterations 57
time step continuity errors : sum local = 2.17346140802e-09, global = -2.09133953895e-10, cumulative = 2.69762422497e-07
smoothSolver:  Solving for epsilon, Initial residual = 0.090057491983, Final residual = 7.60951229292e-09, No Iterations 26
smoothSolver:  Solving for k, Initial residual = 0.02293395173, Final residual = 7.84934453449e-09, No Iterations 24
ExecutionTime = 39.634819 s  ClockTime = 40 s

Time = 45s

smoothSolver:  Solving for Ux, Initial residual = 0.00628995389052, Final residual = 7.67647622508e-09, No Iterations 22
smoothSolver:  Solving for Uy, Initial residual = 0.00159608629385, Final residual = 5.64681942662e-09, No Iterations 20
GAMG:  Solving for p, Initial residual = 0.0171679871753, Final residual = 0.000161542771332, No Iterations 46
GAMG:  Solving for p, Initial residual = 0.000227420372266, Final residual = 2.19725898682e-06, No Iterations 80
GAMG:  Solving for p, Initial residual = 3.01442429814e-06, Final residual = 9.46172162336e-08, No Iterations 58
time step continuity errors : sum local = 1.83825182591e-09, global = 1.80967035154e-10, cumulative = 2.69943389533e-07
smoothSolver:  Solving for epsilon, Initial residual = 0.0874846562593, Final residual = 7.42159457281e-09, No Iterations 26
smoothSolver:  Solving for k, Initial residual = 0.0225379496494, Final residual = 7.73035224347e-09, No Iterations 24
ExecutionTime = 40.421293 s  ClockTime = 41 s

Time = 46s

smoothSolver:  Solving for Ux, Initial residual = 0.00609082976251, Final residual = 7.44111036172e-09, No Iterations 22
smoothSolver:  Solving for Uy, Initial residual = 0.00162698583421, Final residual = 5.82122867083e-09, No Iterations 20
GAMG:  Solving for p, Initial residual = 0.0168033467986, Final residual = 0.000162643158055, No Iterations 50
GAMG:  Solving for p, Initial residual = 0.000237156531809, Final residual = 2.36419878577e-06, No Iterations 80
GAMG:  Solving for p, Initial residual = 3.2009770986e-06, Final residual = 9.74493489399e-08, No Iterations 59
time step continuity errors : sum local = 1.78243476428e-09, global = -1.73633430822e-10, cumulative = 2.69769756102e-07
smoothSolver:  Solving for epsilon, Initial residual = 0.0850736550157, Final residual = 7.24514479197e-09, No Iterations 26
smoothSolver:  Solving for k, Initial residual = 0.0221576438185, Final residual = 7.61590647432e-09, No Iterations 24
ExecutionTime = 41.226902 s  ClockTime = 42 s

Time = 47s

smoothSolver:  Solving for Ux, Initial residual = 0.00587369203241, Final residual = 7.18764373989e-09, No Iterations 22
smoothSolver:  Solving for Uy, Initial residual = 0.0015878001063, Final residual = 5.6980037016e-09, No Iterations 20
GAMG:  Solving for p, Initial residual = 0.0167104240501, Final residual = 0.000159951054586, No Iterations 39
GAMG:  Solving for p, Initial residual = 0.000215635315648, Final residual = 2.15028168374e-06, No Iterations 79
GAMG:  Solving for p, Initial residual = 2.99035104773e-06, Final residual = 9.76785009088e-08, No Iterations 57
time step continuity errors : sum local = 1.86946998816e-09, global = -1.82088289474e-10, cumulative = 2.69587667812e-07
smoothSolver:  Solving for epsilon, Initial residual = 0.0828078460796, Final residual = 7.07901757599e-09, No Iterations 26
smoothSolver:  Solving for k, Initial residual = 0.0217920224476, Final residual = 7.505730565e-09, No Iterations 24
ExecutionTime = 41.952569 s  ClockTime = 43 s

Time = 48s

smoothSolver:  Solving for Ux, Initial residual = 0.00574851727337, Final residual = 7.05527079028e-09, No Iterations 22
smoothSolver:  Solving for Uy, Initial residual = 0.00152596673949, Final residual = 5.45844429427e-09, No Iterations 20
GAMG:  Solving for p, Initial residual = 0.0161234097669, Final residual = 0.000156732155218, No Iterations 20
GAMG:  Solving for p, Initial residual = 0.000192487789104, Final residual = 1.88279912205e-06, No Iterations 77
GAMG:  Solving for p, Initial residual = 2.66706596454e-06, Final residual = 9.76926694342e-08, No Iterations 56
time step continuity errors : sum local = 1.99690025644e-09, global = -1.73585844545e-10, cumulative = 2.69414081968e-07
smoothSolver:  Solving for epsilon, Initial residual = 0.0806726439543, Final residual = 6.92219843536e-09, No Iterations 26
smoothSolver:  Solving for k, Initial residual = 0.0214401571917, Final residual = 7.39955121404e-09, No Iterations 24
ExecutionTime = 42.571512 s  ClockTime = 43 s

Time = 49s

smoothSolver:  Solving for Ux, Initial residual = 0.00571435772441, Final residual = 7.03486597846e-09, No Iterations 22
smoothSolver:  Solving for Uy, Initial residual = 0.0014739476799, Final residual = 9.76220583104e-09, No Iterations 19
GAMG:  Solving for p, Initial residual = 0.0150198231952, Final residual = 0.000146460554449, No Iterations 29
GAMG:  Solving for p, Initial residual = 0.000176684237803, Final residual = 1.71199199623e-06, No Iterations 80
GAMG:  Solving for p, Initial residual = 2.19296726328e-06, Final residual = 9.55935829469e-08, No Iterations 54
time step continuity errors : sum local = 1.99441587424e-09, global = 1.89272496256e-10, cumulative = 2.69603354464e-07
smoothSolver:  Solving for epsilon, Initial residual = 0.0786569558176, Final residual = 6.77390406068e-09, No Iterations 26
smoothSolver:  Solving for k, Initial residual = 0.0211014247393, Final residual = 7.2971842474e-09, No Iterations 24
ExecutionTime = 43.2302 s  ClockTime = 44 s

Time = 50s

smoothSolver:  Solving for Ux, Initial residual = 0.00570180755171, Final residual = 7.04225823369e-09, No Iterations 22
smoothSolver:  Solving for Uy, Initial residual = 0.00147663804258, Final residual = 9.78158663606e-09, No Iterations 19
GAMG:  Solving for p, Initial residual = 0.0140383859321, Final residual = 0.000138403538563, No Iterations 15
GAMG:  Solving for p, Initial residual = 0.000171985830973, Final residual = 1.70974927783e-06, No Iterations 73
GAMG:  Solving for p, Initial residual = 2.74325423368e-06, Final residual = 9.53400656636e-08, No Iterations 52
time step continuity errors : sum local = 1.93246725133e-09, global = 1.54015855886e-10, cumulative = 2.6975737032e-07
smoothSolver:  Solving for epsilon, Initial residual = 0.0767520317885, Final residual = 6.63351040883e-09, No Iterations 26
smoothSolver:  Solving for k, Initial residual = 0.0207750357532, Final residual = 7.19839124215e-09, No Iterations 24
ExecutionTime = 43.680184 s  ClockTime = 44 s

Time = 51s

smoothSolver:  Solving for Ux, Initial residual = 0.00564981577729, Final residual = 7.00249486004e-09, No Iterations 22
smoothSolver:  Solving for Uy, Initial residual = 0.00149740427123, Final residual = 9.9838006661e-09, No Iterations 19
GAMG:  Solving for p, Initial residual = 0.0136079684195, Final residual = 0.000126345706053, No Iterations 34
GAMG:  Solving for p, Initial residual = 0.000168097091888, Final residual = 1.6684507242e-06, No Iterations 78
GAMG:  Solving for p, Initial residual = 2.42019532459e-06, Final residual = 9.55811929998e-08, No Iterations 53
time step continuity errors : sum local = 1.85225069636e-09, global = -1.79095354374e-10, cumulative = 2.69578274966e-07
smoothSolver:  Solving for epsilon, Initial residual = 0.0749500492456, Final residual = 6.50046281545e-09, No Iterations 26
smoothSolver:  Solving for k, Initial residual = 0.0204603833384, Final residual = 7.10300485892e-09, No Iterations 24
ExecutionTime = 44.397368 s  ClockTime = 45 s

Time = 52s

smoothSolver:  Solving for Ux, Initial residual = 0.0055518558558, Final residual = 6.90704908999e-09, No Iterations 22
smoothSolver:  Solving for Uy, Initial residual = 0.0014919096922, Final residual = 5.36916126969e-09, No Iterations 20
GAMG:  Solving for p, Initial residual = 0.013445607647, Final residual = 0.000133360633818, No Iterations 38
GAMG:  Solving for p, Initial residual = 0.000178104178701, Final residual = 1.7109175341e-06, No Iterations 80
GAMG:  Solving for p, Initial residual = 2.457353069e-06, Final residual = 9.92815968571e-08, No Iterations 53
time step continuity errors : sum local = 1.87572359733e-09, global = -1.8023087155e-10, cumulative = 2.69398044094e-07
smoothSolver:  Solving for epsilon, Initial residual = 0.073243281414, Final residual = 6.37421945207e-09, No Iterations 26
smoothSolver:  Solving for k, Initial residual = 0.0201568380437, Final residual = 7.01085186907e-09, No Iterations 24
ExecutionTime = 45.115623 s  ClockTime = 46 s

Time = 53s

smoothSolver:  Solving for Ux, Initial residual = 0.00545372952455, Final residual = 6.79613585629e-09, No Iterations 22
smoothSolver:  Solving for Uy, Initial residual = 0.00146662709063, Final residual = 9.86210819957e-09, No Iterations 19
GAMG:  Solving for p, Initial residual = 0.0133196727754, Final residual = 0.00012474829073, No Iterations 34
GAMG:  Solving for p, Initial residual = 0.000165523960026, Final residual = 1.60817739641e-06, No Iterations 79
GAMG:  Solving for p, Initial residual = 2.38477950117e-06, Final residual = 9.67188416515e-08, No Iterations 52
time step continuity errors : sum local = 1.83176984466e-09, global = -1.75150001895e-10, cumulative = 2.69222894092e-07
smoothSolver:  Solving for epsilon, Initial residual = 0.071624181623, Final residual = 6.25425347991e-09, No Iterations 26
smoothSolver:  Solving for k, Initial residual = 0.0198637324689, Final residual = 6.92173940763e-09, No Iterations 24
ExecutionTime = 45.810311 s  ClockTime = 47 s

Time = 54s

smoothSolver:  Solving for Ux, Initial residual = 0.00537504735588, Final residual = 6.70978492477e-09, No Iterations 22
smoothSolver:  Solving for Uy, Initial residual = 0.0014357595054, Final residual = 9.65774154583e-09, No Iterations 19
GAMG:  Solving for p, Initial residual = 0.013008861455, Final residual = 0.0001248299427, No Iterations 22
GAMG:  Solving for p, Initial residual = 0.000160188942757, Final residual = 1.56281979886e-06, No Iterations 75
GAMG:  Solving for p, Initial residual = 2.5074815341e-06, Final residual = 9.78426603875e-08, No Iterations 50
time step continuity errors : sum local = 1.87696477315e-09, global = -1.85015237011e-10, cumulative = 2.69037878855e-07
smoothSolver:  Solving for epsilon, Initial residual = 0.0700857286017, Final residual = 6.14007193568e-09, No Iterations 26
smoothSolver:  Solving for k, Initial residual = 0.0195804760409, Final residual = 6.83549566027e-09, No Iterations 24
ExecutionTime = 46.439492 s  ClockTime = 47 s

Time = 55s

smoothSolver:  Solving for Ux, Initial residual = 0.00532088377858, Final residual = 6.65615645182e-09, No Iterations 22
smoothSolver:  Solving for Uy, Initial residual = 0.0014159812756, Final residual = 9.52519322459e-09, No Iterations 19
GAMG:  Solving for p, Initial residual = 0.0126919694581, Final residual = 0.000119211036153, No Iterations 15
GAMG:  Solving for p, Initial residual = 0.000151869479295, Final residual = 1.493332982e-06, No Iterations 70
GAMG:  Solving for p, Initial residual = 2.59898711087e-06, Final residual = 9.4502503928e-08, No Iterations 49
time step continuity errors : sum local = 1.82040179156e-09, global = 1.58695074514e-10, cumulative = 2.6919657393e-07
smoothSolver:  Solving for epsilon, Initial residual = 0.0686204750234, Final residual = 6.03112293412e-09, No Iterations 26
smoothSolver:  Solving for k, Initial residual = 0.0193049584675, Final residual = 6.75141121807e-09, No Iterations 24
ExecutionTime = 46.986036 s  ClockTime = 48 s

Time = 56s

smoothSolver:  Solving for Ux, Initial residual = 0.0052762606926, Final residual = 6.61617527146e-09, No Iterations 22
smoothSolver:  Solving for Uy, Initial residual = 0.0014169215429, Final residual = 9.56661359512e-09, No Iterations 19
GAMG:  Solving for p, Initial residual = 0.0123379621367, Final residual = 0.000112502183774, No Iterations 20
GAMG:  Solving for p, Initial residual = 0.000146574288133, Final residual = 1.43882361497e-06, No Iterations 72
GAMG:  Solving for p, Initial residual = 2.3564480388e-06, Final residual = 9.75114992863e-08, No Iterations 48
time step continuity errors : sum local = 1.86086727572e-09, global = 1.66167973665e-10, cumulative = 2.69362741903e-07
smoothSolver:  Solving for epsilon, Initial residual = 0.0672115640791, Final residual = 5.92600471103e-09, No Iterations 26
smoothSolver:  Solving for k, Initial residual = 0.0190367548067, Final residual = 6.66935972274e-09, No Iterations 24
ExecutionTime = 47.570749 s  ClockTime = 48 s

Time = 57s

smoothSolver:  Solving for Ux, Initial residual = 0.00522536756338, Final residual = 6.56955251076e-09, No Iterations 22
smoothSolver:  Solving for Uy, Initial residual = 0.00141488592379, Final residual = 9.59012068002e-09, No Iterations 19
GAMG:  Solving for p, Initial residual = 0.0120366549477, Final residual = 0.000119207849955, No Iterations 27
GAMG:  Solving for p, Initial residual = 0.000155855194616, Final residual = 1.49247525448e-06, No Iterations 77
GAMG:  Solving for p, Initial residual = 2.29572393564e-06, Final residual = 9.92540419166e-08, No Iterations 50
time step continuity errors : sum local = 1.86501217023e-09, global = 1.75917810869e-10, cumulative = 2.69538659714e-07
smoothSolver:  Solving for epsilon, Initial residual = 0.0658681026844, Final residual = 5.82559054888e-09, No Iterations 26
smoothSolver:  Solving for k, Initial residual = 0.0187771913497, Final residual = 6.58983117222e-09, No Iterations 24
ExecutionTime = 48.224234 s  ClockTime = 49 s

Time = 58s

smoothSolver:  Solving for Ux, Initial residual = 0.00516438381477, Final residual = 6.51003974622e-09, No Iterations 22
smoothSolver:  Solving for Uy, Initial residual = 0.00140382161189, Final residual = 9.54351396104e-09, No Iterations 19
GAMG:  Solving for p, Initial residual = 0.0119718382156, Final residual = 0.000117175809295, No Iterations 30
GAMG:  Solving for p, Initial residual = 0.000154719722187, Final residual = 1.52281118622e-06, No Iterations 78
GAMG:  Solving for p, Initial residual = 2.30065725801e-06, Final residual = 9.81759760023e-08, No Iterations 51
time step continuity errors : sum local = 1.82346403078e-09, global = -1.71953888472e-10, cumulative = 2.69366705826e-07
smoothSolver:  Solving for epsilon, Initial residual = 0.0645860711189, Final residual = 5.72960122567e-09, No Iterations 26
smoothSolver:  Solving for k, Initial residual = 0.0185258552429, Final residual = 6.5127075174e-09, No Iterations 24
ExecutionTime = 48.908507 s  ClockTime = 50 s

Time = 59s

smoothSolver:  Solving for Ux, Initial residual = 0.00509972763963, Final residual = 6.44651401685e-09, No Iterations 22
smoothSolver:  Solving for Uy, Initial residual = 0.00138741977695, Final residual = 9.45028329315e-09, No Iterations 19
GAMG:  Solving for p, Initial residual = 0.0120627248068, Final residual = 0.000119585642255, No Iterations 28
GAMG:  Solving for p, Initial residual = 0.000156392386078, Final residual = 1.5061902313e-06, No Iterations 78
GAMG:  Solving for p, Initial residual = 2.31937089251e-06, Final residual = 9.62044142868e-08, No Iterations 51
time step continuity errors : sum local = 1.77950927572e-09, global = -1.67165538728e-10, cumulative = 2.69199540287e-07
smoothSolver:  Solving for epsilon, Initial residual = 0.0633613764779, Final residual = 5.63774917889e-09, No Iterations 26
smoothSolver:  Solving for k, Initial residual = 0.0182823760501, Final residual = 6.43788632044e-09, No Iterations 24
ExecutionTime = 49.565393 s  ClockTime = 50 s

Time = 60s

smoothSolver:  Solving for Ux, Initial residual = 0.00503958907085, Final residual = 6.38869521453e-09, No Iterations 22
smoothSolver:  Solving for Uy, Initial residual = 0.00137071939713, Final residual = 9.34382766156e-09, No Iterations 19
GAMG:  Solving for p, Initial residual = 0.0121284708555, Final residual = 0.000118474169365, No Iterations 24
GAMG:  Solving for p, Initial residual = 0.000153633119874, Final residual = 1.51334932983e-06, No Iterations 76
GAMG:  Solving for p, Initial residual = 2.3782825407e-06, Final residual = 9.86342659849e-08, No Iterations 50
time step continuity errors : sum local = 1.82407856656e-09, global = 1.71325096443e-10, cumulative = 2.69370865383e-07
smoothSolver:  Solving for epsilon, Initial residual = 0.0621901782893, Final residual = 5.54976136913e-09, No Iterations 26
smoothSolver:  Solving for k, Initial residual = 0.0180463535963, Final residual = 6.3652493478e-09, No Iterations 24
ExecutionTime = 50.209262 s  ClockTime = 51 s

Time = 61s

smoothSolver:  Solving for Ux, Initial residual = 0.00498699147578, Final residual = 6.33943478267e-09, No Iterations 22
smoothSolver:  Solving for Uy, Initial residual = 0.0013606501021, Final residual = 9.28860995848e-09, No Iterations 19
GAMG:  Solving for p, Initial residual = 0.0121535323657, Final residual = 0.000111374853999, No Iterations 22
GAMG:  Solving for p, Initial residual = 0.000145345898813, Final residual = 1.396247029e-06, No Iterations 75
GAMG:  Solving for p, Initial residual = 2.26828651403e-06, Final residual = 9.90558043654e-08, No Iterations 48
time step continuity errors : sum local = 1.82923910842e-09, global = -1.68054099204e-10, cumulative = 2.69202811284e-07
smoothSolver:  Solving for epsilon, Initial residual = 0.0610690225687, Final residual = 5.46539394064e-09, No Iterations 26
smoothSolver:  Solving for k, Initial residual = 0.0178150672775, Final residual = 6.29385924154e-09, No Iterations 24
ExecutionTime = 50.843566 s  ClockTime = 52 s

Time = 62s

smoothSolver:  Solving for Ux, Initial residual = 0.00494356759615, Final residual = 6.29539793483e-09, No Iterations 22
smoothSolver:  Solving for Uy, Initial residual = 0.00135478140292, Final residual = 9.27340351589e-09, No Iterations 19
GAMG:  Solving for p, Initial residual = 0.0121194256613, Final residual = 0.000113180960907, No Iterations 22
GAMG:  Solving for p, Initial residual = 0.000147114469465, Final residual = 1.45650498789e-06, No Iterations 75
GAMG:  Solving for p, Initial residual = 2.31293566737e-06, Final residual = 9.85349880198e-08, No Iterations 49
time step continuity errors : sum local = 1.81054636031e-09, global = 1.66286013781e-10, cumulative = 2.69369097298e-07
smoothSolver:  Solving for epsilon, Initial residual = 0.0599945169838, Final residual = 5.38439944679e-09, No Iterations 26
smoothSolver:  Solving for k, Initial residual = 0.0175903346559, Final residual = 6.22437609214e-09, No Iterations 24
ExecutionTime = 51.460598 s  ClockTime = 52 s

Time = 63s

smoothSolver:  Solving for Ux, Initial residual = 0.00490067245526, Final residual = 6.25120385248e-09, No Iterations 22
smoothSolver:  Solving for Uy, Initial residual = 0.00134626708104, Final residual = 9.23616109985e-09, No Iterations 19
GAMG:  Solving for p, Initial residual = 0.0120549992151, Final residual = 0.000112565087523, No Iterations 24
GAMG:  Solving for p, Initial residual = 0.000146804345979, Final residual = 1.40481155043e-06, No Iterations 77
GAMG:  Solving for p, Initial residual = 2.21959667158e-06, Final residual = 9.7716500477e-08, No Iterations 49
time step continuity errors : sum local = 1.78290482908e-09, global = 1.65354169562e-10, cumulative = 2.69534451468e-07
smoothSolver:  Solving for epsilon, Initial residual = 0.0589642072396, Final residual = 9.87836816016e-09, No Iterations 25
smoothSolver:  Solving for k, Initial residual = 0.0173722658526, Final residual = 6.156856798e-09, No Iterations 24
ExecutionTime = 52.100144 s  ClockTime = 53 s

Time = 64s

smoothSolver:  Solving for Ux, Initial residual = 0.00485599403198, Final residual = 6.2043450495e-09, No Iterations 22
smoothSolver:  Solving for Uy, Initial residual = 0.00133521289732, Final residual = 9.17864142705e-09, No Iterations 19
GAMG:  Solving for p, Initial residual = 0.0120902535138, Final residual = 0.000116392963177, No Iterations 25
GAMG:  Solving for p, Initial residual = 0.000150873409249, Final residual = 1.45917632193e-06, No Iterations 77
GAMG:  Solving for p, Initial residual = 2.26254178718e-06, Final residual = 9.80341050182e-08, No Iterations 50
time step continuity errors : sum local = 1.77717726227e-09, global = 1.65630271578e-10, cumulative = 2.69700081739e-07
smoothSolver:  Solving for epsilon, Initial residual = 0.057975521765, Final residual = 9.7382419532e-09, No Iterations 25
smoothSolver:  Solving for k, Initial residual = 0.0171605830218, Final residual = 6.09122247185e-09, No Iterations 24
ExecutionTime = 52.756861 s  ClockTime = 53 s

Time = 65s

smoothSolver:  Solving for Ux, Initial residual = 0.00481055371753, Final residual = 6.15617769714e-09, No Iterations 22
smoothSolver:  Solving for Uy, Initial residual = 0.00132248373128, Final residual = 9.105921977e-09, No Iterations 19
GAMG:  Solving for p, Initial residual = 0.0120726170416, Final residual = 0.00011736269207, No Iterations 24
GAMG:  Solving for p, Initial residual = 0.00015153470375, Final residual = 1.49918874934e-06, No Iterations 77
GAMG:  Solving for p, Initial residual = 2.32634412713e-06, Final residual = 9.43271641147e-08, No Iterations 51
time step continuity errors : sum local = 1.70206174063e-09, global = 1.58374721378e-10, cumulative = 2.6985845646e-07
smoothSolver:  Solving for epsilon, Initial residual = 0.0570257863265, Final residual = 9.6034165048e-09, No Iterations 25
smoothSolver:  Solving for k, Initial residual = 0.0169550238123, Final residual = 6.02739816149e-09, No Iterations 24
ExecutionTime = 53.403035 s  ClockTime = 54 s

Time = 66s

smoothSolver:  Solving for Ux, Initial residual = 0.00476635117692, Final residual = 6.10947379425e-09, No Iterations 22
smoothSolver:  Solving for Uy, Initial residual = 0.00131028054222, Final residual = 9.03486281861e-09, No Iterations 19
GAMG:  Solving for p, Initial residual = 0.0120789289781, Final residual = 0.000117085570784, No Iterations 23
GAMG:  Solving for p, Initial residual = 0.000150738407951, Final residual = 1.49154995746e-06, No Iterations 76
GAMG:  Solving for p, Initial residual = 2.3281439472e-06, Final residual = 9.87702952003e-08, No Iterations 50
time step continuity errors : sum local = 1.77642117906e-09, global = -1.63045437653e-10, cumulative = 2.69695411023e-07
smoothSolver:  Solving for epsilon, Initial residual = 0.0561129203253, Final residual = 9.47362117047e-09, No Iterations 25
smoothSolver:  Solving for k, Initial residual = 0.0167553181712, Final residual = 5.96530599751e-09, No Iterations 24
ExecutionTime = 54.043853 s  ClockTime = 55 s

Time = 67s

smoothSolver:  Solving for Ux, Initial residual = 0.00472455991704, Final residual = 6.06568594096e-09, No Iterations 22
smoothSolver:  Solving for Uy, Initial residual = 0.00130033322737, Final residual = 8.98120850743e-09, No Iterations 19
GAMG:  Solving for p, Initial residual = 0.0121292306516, Final residual = 0.000112913263394, No Iterations 22
GAMG:  Solving for p, Initial residual = 0.00014603803579, Final residual = 1.42149270948e-06, No Iterations 76
GAMG:  Solving for p, Initial residual = 2.26643910198e-06, Final residual = 9.97230158864e-08, No Iterations 49
time step continuity errors : sum local = 1.78771528317e-09, global = -1.62895499409e-10, cumulative = 2.69532515523e-07
smoothSolver:  Solving for epsilon, Initial residual = 0.0552347681567, Final residual = 9.34856418942e-09, No Iterations 25
smoothSolver:  Solving for k, Initial residual = 0.016561183624, Final residual = 5.90486095879e-09, No Iterations 24
ExecutionTime = 54.677614 s  ClockTime = 55 s

Time = 68s

smoothSolver:  Solving for Ux, Initial residual = 0.00468457403875, Final residual = 6.02584667681e-09, No Iterations 22
smoothSolver:  Solving for Uy, Initial residual = 0.00129082934882, Final residual = 8.93152019752e-09, No Iterations 19
GAMG:  Solving for p, Initial residual = 0.0121836426012, Final residual = 0.00011093147676, No Iterations 22
GAMG:  Solving for p, Initial residual = 0.000144038159019, Final residual = 1.40639716813e-06, No Iterations 76
GAMG:  Solving for p, Initial residual = 2.24523974401e-06, Final residual = 9.91643317776e-08, No Iterations 49
time step continuity errors : sum local = 1.77078750756e-09, global = -1.60803344595e-10, cumulative = 2.69371712179e-07
smoothSolver:  Solving for epsilon, Initial residual = 0.0543893275616, Final residual = 9.2279769722e-09, No Iterations 25
smoothSolver:  Solving for k, Initial residual = 0.0163724158657, Final residual = 5.84600700666e-09, No Iterations 24
ExecutionTime = 55.306463 s  ClockTime = 56 s

Time = 69s

smoothSolver:  Solving for Ux, Initial residual = 0.00464519085693, Final residual = 5.9875660018e-09, No Iterations 22
smoothSolver:  Solving for Uy, Initial residual = 0.00128066073585, Final residual = 8.87639662792e-09, No Iterations 19
GAMG:  Solving for p, Initial residual = 0.0121862198431, Final residual = 0.000113169355011, No Iterations 22
GAMG:  Solving for p, Initial residual = 0.000146396475031, Final residual = 1.46323811524e-06, No Iterations 76
GAMG:  Solving for p, Initial residual = 2.30373794029e-06, Final residual = 9.7794031829e-08, No Iterations 50
time step continuity errors : sum local = 1.73830455726e-09, global = 1.5948809313e-10, cumulative = 2.69531200272e-07
smoothSolver:  Solving for epsilon, Initial residual = 0.0535749467815, Final residual = 9.1116402284e-09, No Iterations 25
smoothSolver:  Solving for k, Initial residual = 0.016188762188, Final residual = 5.78866745363e-09, No Iterations 24
ExecutionTime = 55.935434 s  ClockTime = 57 s

Time = 70s

smoothSolver:  Solving for Ux, Initial residual = 0.0046059278473, Final residual = 5.94977036719e-09, No Iterations 22
smoothSolver:  Solving for Uy, Initial residual = 0.00126940159563, Final residual = 8.81231917298e-09, No Iterations 19
GAMG:  Solving for p, Initial residual = 0.0122091887864, Final residual = 0.000114168894279, No Iterations 22
GAMG:  Solving for p, Initial residual = 0.000147322785963, Final residual = 1.43098748048e-06, No Iterations 77
GAMG:  Solving for p, Initial residual = 2.27142017045e-06, Final residual = 9.61408762386e-08, No Iterations 50
time step continuity errors : sum local = 1.70116661947e-09, global = -1.54935443283e-10, cumulative = 2.69376264829e-07
smoothSolver:  Solving for epsilon, Initial residual = 0.0527894498142, Final residual = 8.99924357684e-09, No Iterations 25
smoothSolver:  Solving for k, Initial residual = 0.0160100093721, Final residual = 5.73278049141e-09, No Iterations 24
ExecutionTime = 56.576764 s  ClockTime = 57 s

Time = 71s

smoothSolver:  Solving for Ux, Initial residual = 0.00456707931588, Final residual = 5.91213473171e-09, No Iterations 22
smoothSolver:  Solving for Uy, Initial residual = 0.00125755806627, Final residual = 8.7427546052e-09, No Iterations 19
GAMG:  Solving for p, Initial residual = 0.0119574798766, Final residual = 0.000111354267926, No Iterations 22
GAMG:  Solving for p, Initial residual = 0.000144005815459, Final residual = 1.39823232439e-06, No Iterations 77
GAMG:  Solving for p, Initial residual = 2.22862533609e-06, Final residual = 9.83983788446e-08, No Iterations 49
time step continuity errors : sum local = 1.73438389433e-09, global = 1.59206912265e-10, cumulative = 2.69535471741e-07
smoothSolver:  Solving for epsilon, Initial residual = 0.0520280272518, Final residual = 8.89001986145e-09, No Iterations 25
smoothSolver:  Solving for k, Initial residual = 0.0158359820828, Final residual = 5.67829642334e-09, No Iterations 24
ExecutionTime = 57.204612 s  ClockTime = 58 s

Time = 72s

smoothSolver:  Solving for Ux, Initial residual = 0.00452995809727, Final residual = 5.87516044365e-09, No Iterations 22
smoothSolver:  Solving for Uy, Initial residual = 0.0012463714231, Final residual = 8.67620087401e-09, No Iterations 19
GAMG:  Solving for p, Initial residual = 0.01191015491, Final residual = 0.000116275521804, No Iterations 21
GAMG:  Solving for p, Initial residual = 0.000148521497153, Final residual = 1.48078010319e-06, No Iterations 76
GAMG:  Solving for p, Initial residual = 2.32325674528e-06, Final residual = 9.92916518667e-08, No Iterations 50
time step continuity errors : sum local = 1.7442721476e-09, global = -1.58198354725e-10, cumulative = 2.69377273386e-07
smoothSolver:  Solving for epsilon, Initial residual = 0.0512855207212, Final residual = 8.78313518285e-09, No Iterations 25
smoothSolver:  Solving for k, Initial residual = 0.015666479132, Final residual = 5.62515578489e-09, No Iterations 24
ExecutionTime = 57.843044 s  ClockTime = 59 s

Time = 73s

smoothSolver:  Solving for Ux, Initial residual = 0.00449673915668, Final residual = 5.8392783647e-09, No Iterations 22
smoothSolver:  Solving for Uy, Initial residual = 0.0012365889626, Final residual = 8.61359687151e-09, No Iterations 19
GAMG:  Solving for p, Initial residual = 0.0120559553793, Final residual = 0.000117028590476, No Iterations 20
GAMG:  Solving for p, Initial residual = 0.000148812262711, Final residual = 1.48233280012e-06, No Iterations 76
GAMG:  Solving for p, Initial residual = 2.34051018133e-06, Final residual = 9.94244311015e-08, No Iterations 50
time step continuity errors : sum local = 1.74068323199e-09, global = 1.58774499341e-10, cumulative = 2.69536047886e-07
smoothSolver:  Solving for epsilon, Initial residual = 0.0505644506756, Final residual = 8.67906344469e-09, No Iterations 25
smoothSolver:  Solving for k, Initial residual = 0.0155013260453, Final residual = 5.57330788317e-09, No Iterations 24
ExecutionTime = 58.481258 s  ClockTime = 59 s

Time = 74s

smoothSolver:  Solving for Ux, Initial residual = 0.00446445480076, Final residual = 5.80448114832e-09, No Iterations 22
smoothSolver:  Solving for Uy, Initial residual = 0.00122738088622, Final residual = 8.55305733177e-09, No Iterations 19
GAMG:  Solving for p, Initial residual = 0.0121984157529, Final residual = 0.000114857776285, No Iterations 20
GAMG:  Solving for p, Initial residual = 0.000146332487619, Final residual = 1.4588678299e-06, No Iterations 76
GAMG:  Solving for p, Initial residual = 2.30870868321e-06, Final residual = 9.80523260137e-08, No Iterations 50
time step continuity errors : sum local = 1.71032494313e-09, global = 1.55661881803e-10, cumulative = 2.69691709767e-07
smoothSolver:  Solving for epsilon, Initial residual = 0.0498678051236, Final residual = 8.57836127712e-09, No Iterations 25
smoothSolver:  Solving for k, Initial residual = 0.015340316992, Final residual = 5.52269020868e-09, No Iterations 24
ExecutionTime = 59.104588 s  ClockTime = 60 s

Time = 75s

smoothSolver:  Solving for Ux, Initial residual = 0.00443267948442, Final residual = 5.77041902365e-09, No Iterations 22
smoothSolver:  Solving for Uy, Initial residual = 0.00121795260063, Final residual = 8.49014363977e-09, No Iterations 19
GAMG:  Solving for p, Initial residual = 0.0124778874279, Final residual = 0.00011412388739, No Iterations 20
GAMG:  Solving for p, Initial residual = 0.000145456923187, Final residual = 1.39779140976e-06, No Iterations 77
GAMG:  Solving for p, Initial residual = 2.24399429746e-06, Final residual = 9.8467041139e-08, No Iterations 49
time step continuity errors : sum local = 1.71051840781e-09, global = 1.55544169541e-10, cumulative = 2.69847253937e-07
smoothSolver:  Solving for epsilon, Initial residual = 0.0491943586261, Final residual = 8.48086344947e-09, No Iterations 25
smoothSolver:  Solving for k, Initial residual = 0.015183322439, Final residual = 5.47326791071e-09, No Iterations 24
ExecutionTime = 59.724154 s  ClockTime = 60 s

Time = 76s

smoothSolver:  Solving for Ux, Initial residual = 0.00440131936446, Final residual = 5.73676885781e-09, No Iterations 22
smoothSolver:  Solving for Uy, Initial residual = 0.00120830084875, Final residual = 8.42636784853e-09, No Iterations 19
GAMG:  Solving for p, Initial residual = 0.0126315722132, Final residual = 0.000123711237217, No Iterations 19
GAMG:  Solving for p, Initial residual = 0.000155144389094, Final residual = 1.45338172485e-06, No Iterations 77
GAMG:  Solving for p, Initial residual = 2.323462108e-06, Final residual = 9.82918567421e-08, No Iterations 50
time step continuity errors : sum local = 1.70044738834e-09, global = 1.54558152042e-10, cumulative = 2.70001812089e-07
smoothSolver:  Solving for epsilon, Initial residual = 0.0485430589922, Final residual = 8.38643025132e-09, No Iterations 25
smoothSolver:  Solving for k, Initial residual = 0.0150301511244, Final residual = 5.42498222778e-09, No Iterations 24
ExecutionTime = 60.353393 s  ClockTime = 61 s

Time = 77s

smoothSolver:  Solving for Ux, Initial residual = 0.00437033572613, Final residual = 5.70349461189e-09, No Iterations 22
smoothSolver:  Solving for Uy, Initial residual = 0.0011992193893, Final residual = 8.36395252581e-09, No Iterations 19
GAMG:  Solving for p, Initial residual = 0.0126388843989, Final residual = 0.000120795767082, No Iterations 19
GAMG:  Solving for p, Initial residual = 0.000152165631836, Final residual = 1.42673994898e-06, No Iterations 77
GAMG:  Solving for p, Initial residual = 2.28651437999e-06, Final residual = 9.66863302128e-08, No Iterations 50
time step continuity errors : sum local = 1.66671395612e-09, global = 1.51345120973e-10, cumulative = 2.7015315721e-07
smoothSolver:  Solving for epsilon, Initial residual = 0.0479125828218, Final residual = 8.29487322878e-09, No Iterations 25
smoothSolver:  Solving for k, Initial residual = 0.0148806259224, Final residual = 9.96193723008e-09, No Iterations 23
ExecutionTime = 60.966024 s  ClockTime = 62 s

Time = 78s

smoothSolver:  Solving for Ux, Initial residual = 0.00433988521111, Final residual = 5.67077303981e-09, No Iterations 22
smoothSolver:  Solving for Uy, Initial residual = 0.00119101387653, Final residual = 8.30775600498e-09, No Iterations 19
GAMG:  Solving for p, Initial residual = 0.0126035308217, Final residual = 0.000122797140267, No Iterations 18
GAMG:  Solving for p, Initial residual = 0.000153976054083, Final residual = 1.47815529034e-06, No Iterations 77
GAMG:  Solving for p, Initial residual = 2.35505047457e-06, Final residual = 9.39495058199e-08, No Iterations 51
time step continuity errors : sum local = 1.61416941804e-09, global = 1.46337719659e-10, cumulative = 2.7029949493e-07
smoothSolver:  Solving for epsilon, Initial residual = 0.0473022666965, Final residual = 8.20611497614e-09, No Iterations 25
smoothSolver:  Solving for k, Initial residual = 0.0147346700297, Final residual = 9.87595068012e-09, No Iterations 23
ExecutionTime = 61.581798 s  ClockTime = 62 s

Time = 79s

smoothSolver:  Solving for Ux, Initial residual = 0.00431003564627, Final residual = 5.63872867847e-09, No Iterations 22
[...]
GAMG:  Solving for p, Initial residual = 0.00737858717883, Final residual = 6.88928680464e-05, No Iterations 26
GAMG:  Solving for p, Initial residual = 6.90328772288e-05, Final residual = 6.8271951923e-07, No Iterations 67
GAMG:  Solving for p, Initial residual = 6.8684773157e-07, Final residual = 9.77481446882e-08, No Iterations 32
time step continuity errors : sum local = 9.74480703919e-10, global = -4.83354447102e-11, cumulative = 2.80537911818e-07
smoothSolver:  Solving for epsilon, Initial residual = 0.00480951284221, Final residual = 5.77412393708e-09, No Iterations 22
smoothSolver:  Solving for k, Initial residual = 0.00336921611406, Final residual = 8.15538443123e-09, No Iterations 21
ExecutionTime = 1033.755335 s  ClockTime = 1037 s

Time = 1982s

smoothSolver:  Solving for Ux, Initial residual = 0.000580595559379, Final residual = 7.09887283795e-09, No Iterations 18
smoothSolver:  Solving for Uy, Initial residual = 0.00134678806705, Final residual = 5.78239454105e-09, No Iterations 20
GAMG:  Solving for p, Initial residual = 0.00757460846471, Final residual = 6.89475788694e-05, No Iterations 26
GAMG:  Solving for p, Initial residual = 6.90831846369e-05, Final residual = 6.67526140363e-07, No Iterations 64
GAMG:  Solving for p, Initial residual = 6.72294712642e-07, Final residual = 9.48604510761e-08, No Iterations 32
time step continuity errors : sum local = 9.45888721643e-10, global = 4.86108364445e-11, cumulative = 2.80586522655e-07
smoothSolver:  Solving for epsilon, Initial residual = 0.00479512168678, Final residual = 5.7563031475e-09, No Iterations 22
smoothSolver:  Solving for k, Initial residual = 0.00336935450873, Final residual = 8.15535138601e-09, No Iterations 21
ExecutionTime = 1034.036243 s  ClockTime = 1037 s

Time = 1983s

smoothSolver:  Solving for Ux, Initial residual = 0.000579818206789, Final residual = 7.08514516209e-09, No Iterations 18
smoothSolver:  Solving for Uy, Initial residual = 0.0013479361184, Final residual = 5.77931459474e-09, No Iterations 20
GAMG:  Solving for p, Initial residual = 0.00743491670887, Final residual = 6.91619249809e-05, No Iterations 26
GAMG:  Solving for p, Initial residual = 6.93027903199e-05, Final residual = 6.67280564951e-07, No Iterations 66
GAMG:  Solving for p, Initial residual = 6.71597746927e-07, Final residual = 9.4983835429e-08, No Iterations 32
time step continuity errors : sum local = 9.46934701676e-10, global = 4.81369963965e-11, cumulative = 2.80634659651e-07
smoothSolver:  Solving for epsilon, Initial residual = 0.00478081611062, Final residual = 5.738650356e-09, No Iterations 22
smoothSolver:  Solving for k, Initial residual = 0.00336952122576, Final residual = 8.15541576931e-09, No Iterations 21
ExecutionTime = 1034.322867 s  ClockTime = 1038 s

Time = 1984s

smoothSolver:  Solving for Ux, Initial residual = 0.000579347729329, Final residual = 7.07146195516e-09, No Iterations 18
smoothSolver:  Solving for Uy, Initial residual = 0.00134925144888, Final residual = 5.77648328949e-09, No Iterations 20
GAMG:  Solving for p, Initial residual = 0.00783232177586, Final residual = 7.5972190303e-05, No Iterations 25
GAMG:  Solving for p, Initial residual = 7.61214920264e-05, Final residual = 7.32925440187e-07, No Iterations 65
GAMG:  Solving for p, Initial residual = 7.36335824079e-07, Final residual = 9.96756984023e-08, No Iterations 33
time step continuity errors : sum local = 9.93270920951e-10, global = -4.91083704488e-11, cumulative = 2.80585551281e-07
smoothSolver:  Solving for epsilon, Initial residual = 0.00476628643075, Final residual = 5.72084947491e-09, No Iterations 22
smoothSolver:  Solving for k, Initial residual = 0.003369649415, Final residual = 8.15550597817e-09, No Iterations 21
ExecutionTime = 1034.610489 s  ClockTime = 1038 s

Time = 1985s

smoothSolver:  Solving for Ux, Initial residual = 0.000578829404926, Final residual = 7.05877233606e-09, No Iterations 18
smoothSolver:  Solving for Uy, Initial residual = 0.00134952877225, Final residual = 5.77009867692e-09, No Iterations 20
GAMG:  Solving for p, Initial residual = 0.00746190114516, Final residual = 7.35676793097e-05, No Iterations 25
GAMG:  Solving for p, Initial residual = 7.37194146626e-05, Final residual = 7.25031044982e-07, No Iterations 65
GAMG:  Solving for p, Initial residual = 7.29136674063e-07, Final residual = 9.4591230725e-08, No Iterations 33
time step continuity errors : sum local = 9.42461309508e-10, global = 4.79178390014e-11, cumulative = 2.8063346912e-07
smoothSolver:  Solving for epsilon, Initial residual = 0.00475212413693, Final residual = 5.70356486144e-09, No Iterations 22
smoothSolver:  Solving for k, Initial residual = 0.00336984864166, Final residual = 8.1558212012e-09, No Iterations 21
ExecutionTime = 1034.91363 s  ClockTime = 1038 s

Time = 1986s

smoothSolver:  Solving for Ux, Initial residual = 0.000578334941676, Final residual = 7.04784856013e-09, No Iterations 18
smoothSolver:  Solving for Uy, Initial residual = 0.00134925079339, Final residual = 5.76585125769e-09, No Iterations 20
GAMG:  Solving for p, Initial residual = 0.00775000172908, Final residual = 7.19348362108e-05, No Iterations 25
GAMG:  Solving for p, Initial residual = 7.20731778303e-05, Final residual = 7.19156522473e-07, No Iterations 65
GAMG:  Solving for p, Initial residual = 7.24065965176e-07, Final residual = 9.34955190158e-08, No Iterations 33
time step continuity errors : sum local = 9.31887308444e-10, global = 4.82041733283e-11, cumulative = 2.80681673293e-07
smoothSolver:  Solving for epsilon, Initial residual = 0.00473781899011, Final residual = 5.68612803187e-09, No Iterations 22
smoothSolver:  Solving for k, Initial residual = 0.0033700203351, Final residual = 8.15610372194e-09, No Iterations 21
ExecutionTime = 1035.242078 s  ClockTime = 1038 s

Time = 1987s

smoothSolver:  Solving for Ux, Initial residual = 0.000577822829857, Final residual = 7.03731121918e-09, No Iterations 18
smoothSolver:  Solving for Uy, Initial residual = 0.00134875651616, Final residual = 5.76476709677e-09, No Iterations 20
GAMG:  Solving for p, Initial residual = 0.00768759235018, Final residual = 7.17571079611e-05, No Iterations 25
GAMG:  Solving for p, Initial residual = 7.18955814466e-05, Final residual = 7.04273256151e-07, No Iterations 65
GAMG:  Solving for p, Initial residual = 7.08715920989e-07, Final residual = 9.85222885071e-08, No Iterations 32
time step continuity errors : sum local = 9.81909131921e-10, global = 4.98140603304e-11, cumulative = 2.80731487353e-07
smoothSolver:  Solving for epsilon, Initial residual = 0.00472349064701, Final residual = 5.6686832144e-09, No Iterations 22
smoothSolver:  Solving for k, Initial residual = 0.00337017675143, Final residual = 8.15630759383e-09, No Iterations 21
ExecutionTime = 1035.56454 s  ClockTime = 1039 s

Time = 1988s

smoothSolver:  Solving for Ux, Initial residual = 0.000577392061777, Final residual = 7.02716682704e-09, No Iterations 18
smoothSolver:  Solving for Uy, Initial residual = 0.0013483741278, Final residual = 5.76516736438e-09, No Iterations 20
GAMG:  Solving for p, Initial residual = 0.00817386634085, Final residual = 7.7758617503e-05, No Iterations 24
GAMG:  Solving for p, Initial residual = 7.7909328609e-05, Final residual = 7.69067840911e-07, No Iterations 64
GAMG:  Solving for p, Initial residual = 7.72327271364e-07, Final residual = 9.95206423495e-08, No Iterations 33
time step continuity errors : sum local = 9.91324835463e-10, global = 5.05420812984e-11, cumulative = 2.80782029435e-07
smoothSolver:  Solving for epsilon, Initial residual = 0.00470890193682, Final residual = 5.65093058875e-09, No Iterations 22
smoothSolver:  Solving for k, Initial residual = 0.00337026646266, Final residual = 8.15634064839e-09, No Iterations 21
ExecutionTime = 1035.88909 s  ClockTime = 1039 s

Time = 1989s

smoothSolver:  Solving for Ux, Initial residual = 0.000576812910034, Final residual = 7.0163833746e-09, No Iterations 18
smoothSolver:  Solving for Uy, Initial residual = 0.00134710665491, Final residual = 5.76553026579e-09, No Iterations 20
GAMG:  Solving for p, Initial residual = 0.00780412642801, Final residual = 7.58425568179e-05, No Iterations 24
GAMG:  Solving for p, Initial residual = 7.59968440702e-05, Final residual = 7.49046770234e-07, No Iterations 64
GAMG:  Solving for p, Initial residual = 7.53124664279e-07, Final residual = 9.62071052493e-08, No Iterations 33
time step continuity errors : sum local = 9.5804861343e-10, global = 4.97577548924e-11, cumulative = 2.8083178719e-07
smoothSolver:  Solving for epsilon, Initial residual = 0.0046946583345, Final residual = 5.63357776155e-09, No Iterations 22
smoothSolver:  Solving for k, Initial residual = 0.00337038599497, Final residual = 8.15643615048e-09, No Iterations 21
ExecutionTime = 1036.189869 s  ClockTime = 1039 s

Time = 1990s

smoothSolver:  Solving for Ux, Initial residual = 0.000576212653369, Final residual = 7.00562848296e-09, No Iterations 18
smoothSolver:  Solving for Uy, Initial residual = 0.00134548666185, Final residual = 5.76831579316e-09, No Iterations 20
GAMG:  Solving for p, Initial residual = 0.0079291723507, Final residual = 7.46774855869e-05, No Iterations 24
GAMG:  Solving for p, Initial residual = 7.48234927375e-05, Final residual = 7.21653296194e-07, No Iterations 64
GAMG:  Solving for p, Initial residual = 7.26344970563e-07, Final residual = 9.82095971181e-08, No Iterations 32
time step continuity errors : sum local = 9.78141908027e-10, global = -5.04618513874e-11, cumulative = 2.80781325338e-07
smoothSolver:  Solving for epsilon, Initial residual = 0.00468017644679, Final residual = 5.61590124576e-09, No Iterations 22
smoothSolver:  Solving for k, Initial residual = 0.00337045834341, Final residual = 8.15639656401e-09, No Iterations 21
ExecutionTime = 1036.521721 s  ClockTime = 1040 s

Time = 1991s

smoothSolver:  Solving for Ux, Initial residual = 0.000575636464137, Final residual = 6.99453185082e-09, No Iterations 18
smoothSolver:  Solving for Uy, Initial residual = 0.00134360607312, Final residual = 5.77234993922e-09, No Iterations 20
GAMG:  Solving for p, Initial residual = 0.00780612783503, Final residual = 7.48004386653e-05, No Iterations 24
GAMG:  Solving for p, Initial residual = 7.49441844103e-05, Final residual = 7.07729439485e-07, No Iterations 64
GAMG:  Solving for p, Initial residual = 7.12179923584e-07, Final residual = 9.67209452954e-08, No Iterations 32
time step continuity errors : sum local = 9.63220168424e-10, global = -5.01209080384e-11, cumulative = 2.8073120443e-07
smoothSolver:  Solving for epsilon, Initial residual = 0.0046656825081, Final residual = 5.59820757868e-09, No Iterations 22
smoothSolver:  Solving for k, Initial residual = 0.00337051776123, Final residual = 8.15625236989e-09, No Iterations 21
ExecutionTime = 1036.819126 s  ClockTime = 1040 s

Time = 1992s

smoothSolver:  Solving for Ux, Initial residual = 0.000575133596287, Final residual = 6.98258366128e-09, No Iterations 18
smoothSolver:  Solving for Uy, Initial residual = 0.00134176699735, Final residual = 5.77624128558e-09, No Iterations 20
GAMG:  Solving for p, Initial residual = 0.00814475479783, Final residual = 7.55116120732e-05, No Iterations 24
GAMG:  Solving for p, Initial residual = 7.56590580944e-05, Final residual = 7.14930728314e-07, No Iterations 64
GAMG:  Solving for p, Initial residual = 7.17903742149e-07, Final residual = 9.74529564211e-08, No Iterations 32
time step continuity errors : sum local = 9.69972379383e-10, global = -4.94922257459e-11, cumulative = 2.80681712204e-07
smoothSolver:  Solving for epsilon, Initial residual = 0.00465099480911, Final residual = 5.58020989828e-09, No Iterations 22
smoothSolver:  Solving for k, Initial residual = 0.00337052650893, Final residual = 8.15591115629e-09, No Iterations 21
ExecutionTime = 1037.118959 s  ClockTime = 1040 s

Time = 1993s

smoothSolver:  Solving for Ux, Initial residual = 0.000574510233375, Final residual = 6.96976603133e-09, No Iterations 18
smoothSolver:  Solving for Uy, Initial residual = 0.00133926554393, Final residual = 5.77847399762e-09, No Iterations 20
GAMG:  Solving for p, Initial residual = 0.00764203600668, Final residual = 7.47939629251e-05, No Iterations 24
GAMG:  Solving for p, Initial residual = 7.49481629487e-05, Final residual = 7.35744328207e-07, No Iterations 63
GAMG:  Solving for p, Initial residual = 7.39583400543e-07, Final residual = 9.93311265241e-08, No Iterations 32
time step continuity errors : sum local = 9.88392514645e-10, global = 5.24304275864e-11, cumulative = 2.80734142632e-07
smoothSolver:  Solving for epsilon, Initial residual = 0.00463673554229, Final residual = 5.56255996786e-09, No Iterations 22
smoothSolver:  Solving for k, Initial residual = 0.00337056518373, Final residual = 8.15553493891e-09, No Iterations 21
ExecutionTime = 1037.401164 s  ClockTime = 1041 s

Time = 1994s

smoothSolver:  Solving for Ux, Initial residual = 0.000573711715238, Final residual = 6.95740673248e-09, No Iterations 18
smoothSolver:  Solving for Uy, Initial residual = 0.00133658235206, Final residual = 5.78138640618e-09, No Iterations 20
GAMG:  Solving for p, Initial residual = 0.00767884355802, Final residual = 6.97055492696e-05, No Iterations 25
GAMG:  Solving for p, Initial residual = 6.98428936796e-05, Final residual = 6.82394060409e-07, No Iterations 63
GAMG:  Solving for p, Initial residual = 6.86381738818e-07, Final residual = 9.76624481919e-08, No Iterations 31
time step continuity errors : sum local = 9.72082359837e-10, global = -5.08505549377e-11, cumulative = 2.80683292077e-07
smoothSolver:  Solving for epsilon, Initial residual = 0.00462231176142, Final residual = 5.54470689595e-09, No Iterations 22
smoothSolver:  Solving for k, Initial residual = 0.00337057667668, Final residual = 8.1550132603e-09, No Iterations 21
ExecutionTime = 1037.688749 s  ClockTime = 1041 s

Time = 1995s

smoothSolver:  Solving for Ux, Initial residual = 0.00057284430938, Final residual = 6.94412179401e-09, No Iterations 18
smoothSolver:  Solving for Uy, Initial residual = 0.0013353390184, Final residual = 5.78216239644e-09, No Iterations 20
GAMG:  Solving for p, Initial residual = 0.00740203701628, Final residual = 6.94595163909e-05, No Iterations 25
GAMG:  Solving for p, Initial residual = 6.96012342503e-05, Final residual = 6.70203697398e-07, No Iterations 63
GAMG:  Solving for p, Initial residual = 6.741288033e-07, Final residual = 9.5784541728e-08, No Iterations 31
time step continuity errors : sum local = 9.53166065842e-10, global = 5.18790517212e-11, cumulative = 2.80735171129e-07
smoothSolver:  Solving for epsilon, Initial residual = 0.00460795159687, Final residual = 5.52698604737e-09, No Iterations 22
smoothSolver:  Solving for k, Initial residual = 0.00337063753608, Final residual = 8.15453290639e-09, No Iterations 21
ExecutionTime = 1037.967022 s  ClockTime = 1041 s

Time = 1996s

smoothSolver:  Solving for Ux, Initial residual = 0.000572148161719, Final residual = 6.93258866769e-09, No Iterations 18
smoothSolver:  Solving for Uy, Initial residual = 0.00133546788899, Final residual = 5.78560864241e-09, No Iterations 20
GAMG:  Solving for p, Initial residual = 0.00769430258687, Final residual = 6.9153012623e-05, No Iterations 25
GAMG:  Solving for p, Initial residual = 6.92939672356e-05, Final residual = 6.62119172328e-07, No Iterations 63
GAMG:  Solving for p, Initial residual = 6.64782360759e-07, Final residual = 9.94730456437e-08, No Iterations 30
time step continuity errors : sum local = 9.89303864229e-10, global = -5.2680107241e-11, cumulative = 2.80682491021e-07
smoothSolver:  Solving for epsilon, Initial residual = 0.00459346424468, Final residual = 5.50910455058e-09, No Iterations 22
smoothSolver:  Solving for k, Initial residual = 0.00337071184257, Final residual = 8.15403101042e-09, No Iterations 21
ExecutionTime = 1038.238288 s  ClockTime = 1041 s

Time = 1997s

smoothSolver:  Solving for Ux, Initial residual = 0.000571394118136, Final residual = 6.92203749381e-09, No Iterations 18
smoothSolver:  Solving for Uy, Initial residual = 0.00133506901259, Final residual = 5.78920694846e-09, No Iterations 20
GAMG:  Solving for p, Initial residual = 0.0072710679767, Final residual = 6.89514370308e-05, No Iterations 25
GAMG:  Solving for p, Initial residual = 6.90982831221e-05, Final residual = 6.58747774334e-07, No Iterations 63
GAMG:  Solving for p, Initial residual = 6.62197225256e-07, Final residual = 9.97502820161e-08, No Iterations 30
time step continuity errors : sum local = 9.91792172342e-10, global = -5.28783857713e-11, cumulative = 2.80629612636e-07
smoothSolver:  Solving for epsilon, Initial residual = 0.00457937434802, Final residual = 5.49172396952e-09, No Iterations 22
smoothSolver:  Solving for k, Initial residual = 0.0033708547574, Final residual = 8.153672537e-09, No Iterations 21
ExecutionTime = 1038.51352 s  ClockTime = 1042 s

Time = 1998s

smoothSolver:  Solving for Ux, Initial residual = 0.000570660883903, Final residual = 6.91405229792e-09, No Iterations 18
smoothSolver:  Solving for Uy, Initial residual = 0.00133478948548, Final residual = 5.79296096513e-09, No Iterations 20
GAMG:  Solving for p, Initial residual = 0.0074651249911, Final residual = 6.84736576635e-05, No Iterations 25
GAMG:  Solving for p, Initial residual = 6.8617543161e-05, Final residual = 6.70850901462e-07, No Iterations 63
GAMG:  Solving for p, Initial residual = 6.74833885165e-07, Final residual = 9.48498898216e-08, No Iterations 31
time step continuity errors : sum local = 9.43134182647e-10, global = 5.09462185058e-11, cumulative = 2.80680558854e-07
smoothSolver:  Solving for epsilon, Initial residual = 0.00456519255168, Final residual = 5.47424852177e-09, No Iterations 22
smoothSolver:  Solving for k, Initial residual = 0.00337098252651, Final residual = 8.15330656492e-09, No Iterations 21
ExecutionTime = 1038.793612 s  ClockTime = 1042 s

Time = 1999s

smoothSolver:  Solving for Ux, Initial residual = 0.000570010969699, Final residual = 6.90754601587e-09, No Iterations 18
smoothSolver:  Solving for Uy, Initial residual = 0.00133559064057, Final residual = 5.79612183196e-09, No Iterations 20
GAMG:  Solving for p, Initial residual = 0.0075684755477, Final residual = 7.40579456664e-05, No Iterations 24
GAMG:  Solving for p, Initial residual = 7.42026945071e-05, Final residual = 7.34871812964e-07, No Iterations 63
GAMG:  Solving for p, Initial residual = 7.38175762333e-07, Final residual = 9.78279395131e-08, No Iterations 32
time step continuity errors : sum local = 9.72440388128e-10, global = 5.16229381571e-11, cumulative = 2.80732181792e-07
smoothSolver:  Solving for epsilon, Initial residual = 0.00455086474816, Final residual = 5.45660621839e-09, No Iterations 22
smoothSolver:  Solving for k, Initial residual = 0.00337110686972, Final residual = 8.15294867566e-09, No Iterations 21
ExecutionTime = 1039.087614 s  ClockTime = 1042 s

Time = 2000s

smoothSolver:  Solving for Ux, Initial residual = 0.000569291181486, Final residual = 6.89552081499e-09, No Iterations 18
smoothSolver:  Solving for Uy, Initial residual = 0.00133680294924, Final residual = 5.7988612796e-09, No Iterations 20
GAMG:  Solving for p, Initial residual = 0.00728031356854, Final residual = 6.69688214971e-05, No Iterations 25
GAMG:  Solving for p, Initial residual = 6.71054412951e-05, Final residual = 6.5916771661e-07, No Iterations 63
GAMG:  Solving for p, Initial residual = 6.62569261185e-07, Final residual = 9.99937224635e-08, No Iterations 30
time step continuity errors : sum local = 9.93827089835e-10, global = -5.18273851307e-11, cumulative = 2.80680354407e-07
smoothSolver:  Solving for epsilon, Initial residual = 0.00453693819017, Final residual = 5.43943393189e-09, No Iterations 22
smoothSolver:  Solving for k, Initial residual = 0.00337128584772, Final residual = 8.15268547344e-09, No Iterations 21
ExecutionTime = 1039.370127 s  ClockTime = 1043 s

End

Finalising parallel run
