--------------------------------------------------------------------------
[[21213,1],7]: A high-performance Open MPI point-to-point messaging module
was unable to find any relevant network interfaces:

Module: OpenFabrics (openib)
  Host: ElMakinon

Another transport will be used instead, although this may result in
lower performance.
--------------------------------------------------------------------------
/*---------------------------------------------------------------------------*\
  =========                 |
  \\      /  F ield         | OpenFOAM: The Open Source CFD Toolbox
   \\    /   O peration     | Website:  https://openfoam.org
    \\  /    A nd           | Version:  12
     \\/     M anipulation  |
\*---------------------------------------------------------------------------*/
Build  : 12-17d01581437c
Exec   : foamRun -parallel
Date   : Jul 06 2025
Time   : 12:18:17
Host   : "ElMakinon"
PID    : 7168
I/O    : uncollated
Case   : /home/cfd/OpenFOAM/cfd-12/myCasesOpenFOAM-12/FVM_WD/Pipe_3D/Pipe_3D_linear_solver_convergence_rate/compressible
nProcs : 8
Slaves : 
7
(
"ElMakinon.7169"
"ElMakinon.7170"
"ElMakinon.7171"
"ElMakinon.7172"
"ElMakinon.7173"
"ElMakinon.7174"
"ElMakinon.7175"
)

Pstream initialised with:
    floatTransfer      : false
    nProcsSimpleSum    : 0
    commsType          : nonBlocking
    polling iterations : 0
sigFpe : Enabling floating point exception trapping (FOAM_SIGFPE).
fileModificationChecking : Monitoring run-time modified files using timeStampMaster (fileModificationSkew 10)
allowSystemOperations : Allowing user-supplied system call operations

// * * * * * * * * * * * * * * * * * * * * * * * * * * * * * * * * * * * * * //
Create time

Create mesh for time = 0

Selecting solver fluid
Selecting thermodynamics package 
{
    type            hePsiThermo;
    mixture         pureMixture;
    transport       const;
    thermo          hConst;
    equationOfState perfectGas;
    specie          specie;
    energy          sensibleEnthalpy;
}

Selecting turbulence model type laminar
Selecting laminar stress model Stokes
No MRF models present

Courant Number mean: 0 max: 0
Selecting thermophysical transport type laminar
Selecting default laminar thermophysical transport model unityLewisFourier
Creating fvConstraints from "system/fvConstraints"

Selecting finite volume constraint type limitPressure
    Name: limitp
    min 20265
    max 506625

Selecting finite volume constraint type limitTemperature
    Name: limitT
    - selecting all cells
    - selected 25344 cell(s) with volume 1.51702234403e-06

PIMPLE: No convergence criteria found


PIMPLE: No corrector convergence criteria found
        Calculations will do 5 corrections


PIMPLE: Operating solver in transient mode with 5 outer correctors



Starting time loop

Courant Number mean: 0 max: 0
Time = 0.0005s

PIMPLE: Iteration 1
diagonal:  Solving for rho, Initial residual = 0, Final residual = 0, No Iterations 0
DILUPBiCGStab:  Solving for Ux, Initial residual = 0.999999911377, Final residual = 7.08414280595e-10, No Iterations 4
DILUPBiCGStab:  Solving for Uy, Initial residual = 0.999999916276, Final residual = 1.0071511557e-09, No Iterations 4
DILUPBiCGStab:  Solving for Uz, Initial residual = 1, Final residual = 8.0464177948e-10, No Iterations 4
DILUPBiCGStab:  Solving for h, Initial residual = 0.00588958443091, Final residual = 1.26515227973e-09, No Iterations 3
FDICPCG:  Solving for p, Initial residual = 0.999999969816, Final residual = 0.00826547781779, No Iterations 554
FDICPCG:  Solving for p, Initial residual = 0.000619274956173, Final residual = 6.03436311929e-06, No Iterations 20
FDICPCG:  Solving for p, Initial residual = 8.99207689822e-05, Final residual = 7.76601579075e-07, No Iterations 22
diagonal:  Solving for rho, Initial residual = 0, Final residual = 0, No Iterations 0
time step continuity errors : sum local = 9.67764996394e-08, global = 1.72066370486e-09, cumulative = 1.72066370486e-09
FDICPCG:  Solving for p, Initial residual = 0.025007521381, Final residual = 0.000205463858894, No Iterations 545
FDICPCG:  Solving for p, Initial residual = 0.000496860827342, Final residual = 4.54590366147e-06, No Iterations 22
FDICPCG:  Solving for p, Initial residual = 7.07822942556e-05, Final residual = 9.09924104467e-07, No Iterations 14
diagonal:  Solving for rho, Initial residual = 0, Final residual = 0, No Iterations 0
time step continuity errors : sum local = 0.000256281180055, global = -0.000256281180055, cumulative = -0.000256279459391
FDICPCG:  Solving for p, Initial residual = 0.00262354372965, Final residual = 1.72212268485e-05, No Iterations 536
FDICPCG:  Solving for p, Initial residual = 8.20266250923e-05, Final residual = 7.85494869869e-07, No Iterations 37
FDICPCG:  Solving for p, Initial residual = 1.23115312065e-05, Final residual = 5.87198404283e-07, No Iterations 4
diagonal:  Solving for rho, Initial residual = 0, Final residual = 0, No Iterations 0
time step continuity errors : sum local = 0.000249657991129, global = -0.000249657991129, cumulative = -0.00050593745052
PIMPLE: Iteration 2
DILUPBiCGStab:  Solving for Ux, Initial residual = 0.172231982132, Final residual = 9.17441195596e-09, No Iterations 3
DILUPBiCGStab:  Solving for Uy, Initial residual = 0.172244773358, Final residual = 1.99980151891e-09, No Iterations 4
DILUPBiCGStab:  Solving for Uz, Initial residual = 0.331137898967, Final residual = 1.98182026587e-09, No Iterations 4
DILUPBiCGStab:  Solving for h, Initial residual = 1, Final residual = 3.3590949227e-09, No Iterations 4
FDICPCG:  Solving for p, Initial residual = 0.0114565623886, Final residual = 8.78267848605e-05, No Iterations 545
FDICPCG:  Solving for p, Initial residual = 0.000444819110228, Final residual = 4.32034411872e-06, No Iterations 21
FDICPCG:  Solving for p, Initial residual = 6.5776916882e-05, Final residual = 9.76292745858e-07, No Iterations 14
diagonal:  Solving for rho, Initial residual = 0, Final residual = 0, No Iterations 0
time step continuity errors : sum local = 4.27182491466e-05, global = 4.27182491466e-05, cumulative = -0.000463219201373
FDICPCG:  Solving for p, Initial residual = 0.00476641962931, Final residual = 4.41973332878e-05, No Iterations 537
FDICPCG:  Solving for p, Initial residual = 0.00022281032724, Final residual = 1.99175595994e-06, No Iterations 21
FDICPCG:  Solving for p, Initial residual = 3.29650168648e-05, Final residual = 7.1307332778e-07, No Iterations 5
diagonal:  Solving for rho, Initial residual = 0, Final residual = 0, No Iterations 0
time step continuity errors : sum local = 4.99072640043e-05, global = 4.987016889e-05, cumulative = -0.000413349032483
FDICPCG:  Solving for p, Initial residual = 0.000373925711796, Final residual = 2.7417123461e-06, No Iterations 535
FDICPCG:  Solving for p, Initial residual = 1.68178833965e-05, Final residual = 9.24934592312e-07, No Iterations 12
FDICPCG:  Solving for p, Initial residual = 3.08173956144e-06, Final residual = 7.51569542712e-07, No Iterations 3
diagonal:  Solving for rho, Initial residual = 0, Final residual = 0, No Iterations 0
time step continuity errors : sum local = 5.07784811085e-05, global = 5.07784811085e-05, cumulative = -0.000362570551374
PIMPLE: Iteration 3
DILUPBiCGStab:  Solving for Ux, Initial residual = 0.0412892727916, Final residual = 4.45900207266e-09, No Iterations 3
DILUPBiCGStab:  Solving for Uy, Initial residual = 0.0412868538653, Final residual = 5.72007159715e-09, No Iterations 3
DILUPBiCGStab:  Solving for Uz, Initial residual = 0.0572715162509, Final residual = 4.10251568899e-09, No Iterations 3
DILUPBiCGStab:  Solving for h, Initial residual = 0.142633201363, Final residual = 9.62410443002e-09, No Iterations 4
FDICPCG:  Solving for p, Initial residual = 0.00228899597765, Final residual = 2.26113932501e-05, No Iterations 552
FDICPCG:  Solving for p, Initial residual = 5.40734548624e-05, Final residual = 6.23374997205e-07, No Iterations 22
FDICPCG:  Solving for p, Initial residual = 7.39907561451e-06, Final residual = 3.72586474558e-07, No Iterations 4
diagonal:  Solving for rho, Initial residual = 0, Final residual = 0, No Iterations 0
time step continuity errors : sum local = 1.43950983792e-05, global = 1.43950983792e-05, cumulative = -0.000348175452995
FDICPCG:  Solving for p, Initial residual = 0.000669315845638, Final residual = 6.33888740753e-06, No Iterations 545
FDICPCG:  Solving for p, Initial residual = 2.23680424054e-05, Final residual = 9.23801782037e-07, No Iterations 12
FDICPCG:  Solving for p, Initial residual = 3.50045048012e-06, Final residual = 7.89893035116e-07, No Iterations 3
diagonal:  Solving for rho, Initial residual = 0, Final residual = 0, No Iterations 0
time step continuity errors : sum local = 1.40305645457e-05, global = 1.40305645457e-05, cumulative = -0.00033414488845
FDICPCG:  Solving for p, Initial residual = 0.000109303887657, Final residual = 1.00517905e-06, No Iterations 544
FDICPCG:  Solving for p, Initial residual = 3.66748517596e-06, Final residual = 5.28614130762e-07, No Iterations 3
FDICPCG:  Solving for p, Initial residual = 8.61697172512e-07, Final residual = 4.5045852863e-07, No Iterations 3
diagonal:  Solving for rho, Initial residual = 0, Final residual = 0, No Iterations 0
time step continuity errors : sum local = 1.42051404662e-05, global = 1.42051404662e-05, cumulative = -0.000319939747983
PIMPLE: Iteration 4
DILUPBiCGStab:  Solving for Ux, Initial residual = 0.00618534662939, Final residual = 8.46931099525e-09, No Iterations 3
DILUPBiCGStab:  Solving for Uy, Initial residual = 0.00618516059472, Final residual = 1.00018817966e-09, No Iterations 3
DILUPBiCGStab:  Solving for Uz, Initial residual = 0.0124619532491, Final residual = 9.44659969402e-10, No Iterations 3
DILUPBiCGStab:  Solving for h, Initial residual = 0.034358310889, Final residual = 8.59279573343e-09, No Iterations 3
FDICPCG:  Solving for p, Initial residual = 0.000297643860528, Final residual = 2.37042407319e-06, No Iterations 543
FDICPCG:  Solving for p, Initial residual = 1.04209501052e-05, Final residual = 8.30278596693e-07, No Iterations 4
FDICPCG:  Solving for p, Initial residual = 1.84891843822e-06, Final residual = 7.04915042833e-07, No Iterations 3
diagonal:  Solving for rho, Initial residual = 0, Final residual = 0, No Iterations 0
time step continuity errors : sum local = 4.3167560992e-06, global = 4.31675342796e-06, cumulative = -0.000315622994555
FDICPCG:  Solving for p, Initial residual = 4.78275365076e-05, Final residual = 8.47902762148e-07, No Iterations 535
FDICPCG:  Solving for p, Initial residual = 3.69071650853e-06, Final residual = 3.74507264276e-07, No Iterations 3
FDICPCG:  Solving for p, Initial residual = 7.30031607845e-07, Final residual = 2.23124072711e-07, No Iterations 3
diagonal:  Solving for rho, Initial residual = 0, Final residual = 0, No Iterations 0
time step continuity errors : sum local = 3.79053219903e-06, global = 3.79052470709e-06, cumulative = -0.000311832469848
FDICPCG:  Solving for p, Initial residual = 1.6907417202e-05, Final residual = 9.64814440326e-07, No Iterations 326
FDICPCG:  Solving for p, Initial residual = 1.18721322803e-06, Final residual = 9.37049068967e-07, No Iterations 7
FDICPCG:  Solving for p, Initial residual = 9.73641714296e-07, Final residual = 6.83003302118e-07, No Iterations 3
diagonal:  Solving for rho, Initial residual = 0, Final residual = 0, No Iterations 0
time step continuity errors : sum local = 3.8196232409e-06, global = 3.81957173282e-06, cumulative = -0.000308012898116
PIMPLE: Iteration 5
DILUPBiCGStab:  Solving for Ux, Initial residual = 0.00139789536153, Final residual = 1.88686902462e-09, No Iterations 3
DILUPBiCGStab:  Solving for Uy, Initial residual = 0.00139765250245, Final residual = 2.05737667704e-09, No Iterations 3
DILUPBiCGStab:  Solving for Uz, Initial residual = 0.00350189318259, Final residual = 4.17592514416e-09, No Iterations 3
DILUPBiCGStab:  Solving for h, Initial residual = 0.0102791278928, Final residual = 2.76272564297e-09, No Iterations 3
FDICPCG:  Solving for p, Initial residual = 7.25289290886e-05, Final residual = 6.95256263505e-07, No Iterations 544
FDICPCG:  Solving for p, Initial residual = 4.01199554237e-06, Final residual = 5.75229858021e-07, No Iterations 3
FDICPCG:  Solving for p, Initial residual = 8.26856113163e-07, Final residual = 2.1528713861e-07, No Iterations 3
diagonal:  Solving for rho, Initial residual = 0, Final residual = 0, No Iterations 0
time step continuity errors : sum local = 1.33222522846e-06, global = 1.33219132225e-06, cumulative = -0.000306680706793
FDICPCG:  Solving for p, Initial residual = 1.22049327664e-05, Final residual = 9.53551715283e-07, No Iterations 527
FDICPCG:  Solving for p, Initial residual = 1.81105701129e-06, Final residual = 8.26230471488e-07, No Iterations 3
FDICPCG:  Solving for p, Initial residual = 8.85630845124e-07, Final residual = 7.8669532676e-07, No Iterations 3
diagonal:  Solving for rho, Initial residual = 0, Final residual = 0, No Iterations 0
time step continuity errors : sum local = 1.11468287634e-06, global = 1.11177333391e-06, cumulative = -0.000305568933459
FDICPCG:  Solving for p, Initial residual = 4.24762598347e-06, Final residual = 9.21095752585e-07, No Iterations 266
FDICPCG:  Solving for p, Initial residual = 9.89277860772e-07, Final residual = 9.98420605143e-07, No Iterations 9
FDICPCG:  Solving for p, Initial residual = 1.02052680098e-06, Final residual = 9.28812801456e-07, No Iterations 3
diagonal:  Solving for rho, Initial residual = 0, Final residual = 0, No Iterations 0
time step continuity errors : sum local = 1.12644750845e-06, global = 1.12172011846e-06, cumulative = -0.000304447213341
ExecutionTime = 1.097366 s  ClockTime = 1 s

Courant Number mean: 0.156695164661 max: 0.397821279512
Time = 0.001s

PIMPLE: Iteration 1
diagonal:  Solving for rho, Initial residual = 0, Final residual = 0, No Iterations 0
DILUPBiCGStab:  Solving for Ux, Initial residual = 0.269097818714, Final residual = 8.01628499091e-09, No Iterations 3
DILUPBiCGStab:  Solving for Uy, Initial residual = 0.26909736961, Final residual = 9.94258522145e-09, No Iterations 3
DILUPBiCGStab:  Solving for Uz, Initial residual = 0.62419695171, Final residual = 9.17342271627e-09, No Iterations 3
DILUPBiCGStab:  Solving for h, Initial residual = 0.385872885523, Final residual = 3.08623084887e-10, No Iterations 4
FDICPCG:  Solving for p, Initial residual = 0.0848613878394, Final residual = 0.000724827042116, No Iterations 538
FDICPCG:  Solving for p, Initial residual = 0.000687991813983, Final residual = 5.42162779231e-06, No Iterations 37
FDICPCG:  Solving for p, Initial residual = 7.92135379546e-05, Final residual = 9.19412008477e-07, No Iterations 56
diagonal:  Solving for rho, Initial residual = 0, Final residual = 0, No Iterations 0
time step continuity errors : sum local = 4.17863226966e-05, global = 4.17863172846e-05, cumulative = -0.000262660896056
FDICPCG:  Solving for p, Initial residual = 0.00841209843101, Final residual = 8.22360519147e-05, No Iterations 535
FDICPCG:  Solving for p, Initial residual = 0.000262592709042, Final residual = 2.4074090189e-06, No Iterations 22
FDICPCG:  Solving for p, Initial residual = 3.76093973433e-05, Final residual = 9.72650074584e-07, No Iterations 5
diagonal:  Solving for rho, Initial residual = 0, Final residual = 0, No Iterations 0
time step continuity errors : sum local = 8.58834822401e-05, global = -7.97102173065e-05, cumulative = -0.000342371113363
FDICPCG:  Solving for p, Initial residual = 0.00331105371262, Final residual = 3.30511115693e-05, No Iterations 535
FDICPCG:  Solving for p, Initial residual = 6.53738642716e-05, Final residual = 5.51935549544e-07, No Iterations 37
FDICPCG:  Solving for p, Initial residual = 8.07549030358e-06, Final residual = 4.17712775456e-07, No Iterations 4
diagonal:  Solving for rho, Initial residual = 0, Final residual = 0, No Iterations 0
time step continuity errors : sum local = 8.39364989089e-05, global = -8.24505768459e-05, cumulative = -0.000424821690209
PIMPLE: Iteration 2
DILUPBiCGStab:  Solving for Ux, Initial residual = 0.0317822668344, Final residual = 1.93025488872e-09, No Iterations 3
DILUPBiCGStab:  Solving for Uy, Initial residual = 0.0317814124557, Final residual = 2.27661353359e-09, No Iterations 3
DILUPBiCGStab:  Solving for Uz, Initial residual = 0.150545852706, Final residual = 6.81842549174e-09, No Iterations 3
DILUPBiCGStab:  Solving for h, Initial residual = 0.109215235554, Final residual = 2.35673145119e-09, No Iterations 3
FDICPCG:  Solving for p, Initial residual = 0.00552159506269, Final residual = 3.60890386621e-05, No Iterations 543
FDICPCG:  Solving for p, Initial residual = 0.000145128714638, Final residual = 9.99148709025e-07, No Iterations 23
FDICPCG:  Solving for p, Initial residual = 1.96364012474e-05, Final residual = 9.90769015217e-07, No Iterations 4
diagonal:  Solving for rho, Initial residual = 0, Final residual = 0, No Iterations 0
time step continuity errors : sum local = 1.12737900738e-05, global = -7.52553583624e-06, cumulative = -0.000432347226045
FDICPCG:  Solving for p, Initial residual = 0.00224105277734, Final residual = 2.06871233643e-05, No Iterations 530
FDICPCG:  Solving for p, Initial residual = 5.63258570562e-05, Final residual = 7.3112761666e-07, No Iterations 28
FDICPCG:  Solving for p, Initial residual = 7.3873088245e-06, Final residual = 4.63023923788e-07, No Iterations 4
diagonal:  Solving for rho, Initial residual = 0, Final residual = 0, No Iterations 0
time step continuity errors : sum local = 1.47861963344e-05, global = 1.47823709842e-05, cumulative = -0.000417564855061
FDICPCG:  Solving for p, Initial residual = 0.000557143044725, Final residual = 5.45992135375e-06, No Iterations 536
FDICPCG:  Solving for p, Initial residual = 1.27193214542e-05, Final residual = 7.93271771624e-07, No Iterations 18
FDICPCG:  Solving for p, Initial residual = 2.08728983048e-06, Final residual = 5.49648116643e-07, No Iterations 3
diagonal:  Solving for rho, Initial residual = 0, Final residual = 0, No Iterations 0
time step continuity errors : sum local = 1.62615961321e-05, global = 1.62583959386e-05, cumulative = -0.000401306459122
PIMPLE: Iteration 3
DILUPBiCGStab:  Solving for Ux, Initial residual = 0.00919703580108, Final residual = 2.23967333156e-09, No Iterations 3
DILUPBiCGStab:  Solving for Uy, Initial residual = 0.00919759520849, Final residual = 1.58927340683e-09, No Iterations 3
DILUPBiCGStab:  Solving for Uz, Initial residual = 0.0163322198196, Final residual = 1.66734260975e-11, No Iterations 4
DILUPBiCGStab:  Solving for h, Initial residual = 0.0689194007904, Final residual = 2.46384380239e-09, No Iterations 3
FDICPCG:  Solving for p, Initial residual = 0.0028300914877, Final residual = 2.29359618729e-05, No Iterations 484
FDICPCG:  Solving for p, Initial residual = 0.000135982902895, Final residual = 1.07010153753e-06, No Iterations 89
FDICPCG:  Solving for p, Initial residual = 1.89771453341e-05, Final residual = 7.04537069398e-07, No Iterations 5
diagonal:  Solving for rho, Initial residual = 0, Final residual = 0, No Iterations 0
time step continuity errors : sum local = 8.43061628698e-06, global = -8.42382343396e-06, cumulative = -0.000409730282556
FDICPCG:  Solving for p, Initial residual = 0.000586178364789, Final residual = 5.74359129292e-06, No Iterations 484
FDICPCG:  Solving for p, Initial residual = 3.25290157915e-05, Final residual = 9.64768030394e-07, No Iterations 74
FDICPCG:  Solving for p, Initial residual = 4.84943246392e-06, Final residual = 6.08969133505e-07, No Iterations 4
diagonal:  Solving for rho, Initial residual = 0, Final residual = 0, No Iterations 0
time step continuity errors : sum local = 3.95144342519e-06, global = 7.0412667263e-07, cumulative = -0.000409026155884
FDICPCG:  Solving for p, Initial residual = 0.000236980765319, Final residual = 1.72009166063e-06, No Iterations 459
FDICPCG:  Solving for p, Initial residual = 7.07022568645e-06, Final residual = 9.07563890702e-07, No Iterations 28
FDICPCG:  Solving for p, Initial residual = 1.53277351923e-06, Final residual = 8.55720263281e-07, No Iterations 3
diagonal:  Solving for rho, Initial residual = 0, Final residual = 0, No Iterations 0
time step continuity errors : sum local = 4.41592145878e-06, global = 1.1421401291e-06, cumulative = -0.000407884015754
PIMPLE: Iteration 4
DILUPBiCGStab:  Solving for Ux, Initial residual = 0.00542875350891, Final residual = 1.12202532317e-09, No Iterations 3
DILUPBiCGStab:  Solving for Uy, Initial residual = 0.00542842548088, Final residual = 1.50859723902e-09, No Iterations 3
DILUPBiCGStab:  Solving for Uz, Initial residual = 0.00198261116577, Final residual = 1.63155399147e-09, No Iterations 3
DILUPBiCGStab:  Solving for h, Initial residual = 0.0350104304408, Final residual = 1.61925371411e-09, No Iterations 3
FDICPCG:  Solving for p, Initial residual = 0.00193239368907, Final residual = 1.91782055134e-05, No Iterations 519
FDICPCG:  Solving for p, Initial residual = 0.000113020158674, Final residual = 8.36726752928e-07, No Iterations 39
FDICPCG:  Solving for p, Initial residual = 1.47431398406e-05, Final residual = 8.53305146452e-07, No Iterations 4
diagonal:  Solving for rho, Initial residual = 0, Final residual = 0, No Iterations 0
time step continuity errors : sum local = 4.40279535474e-06, global = -4.40279291518e-06, cumulative = -0.00041228680867
FDICPCG:  Solving for p, Initial residual = 0.000361089793674, Final residual = 3.59238087917e-06, No Iterations 527
FDICPCG:  Solving for p, Initial residual = 3.20394838477e-05, Final residual = 9.54818458187e-07, No Iterations 6
FDICPCG:  Solving for p, Initial residual = 4.58269858504e-06, Final residual = 5.78987863791e-07, No Iterations 4
diagonal:  Solving for rho, Initial residual = 0, Final residual = 0, No Iterations 0
time step continuity errors : sum local = 1.47920747742e-06, global = -9.63092533655e-07, cumulative = -0.000413249901203
FDICPCG:  Solving for p, Initial residual = 0.000133833130039, Final residual = 1.24299360561e-06, No Iterations 474
FDICPCG:  Solving for p, Initial residual = 5.30556345039e-06, Final residual = 6.72377789631e-07, No Iterations 3
FDICPCG:  Solving for p, Initial residual = 1.09344983852e-06, Final residual = 6.08213891365e-07, No Iterations 3
diagonal:  Solving for rho, Initial residual = 0, Final residual = 0, No Iterations 0
time step continuity errors : sum local = 1.51687135748e-06, global = -8.1045396214e-07, cumulative = -0.000414060355165
PIMPLE: Iteration 5
DILUPBiCGStab:  Solving for Ux, Initial residual = 0.00486847027535, Final residual = 1.76578931122e-09, No Iterations 3
DILUPBiCGStab:  Solving for Uy, Initial residual = 0.00486881677662, Final residual = 6.31386631025e-09, No Iterations 3
DILUPBiCGStab:  Solving for Uz, Initial residual = 0.00158020660786, Final residual = 6.53580750626e-10, No Iterations 3
DILUPBiCGStab:  Solving for h, Initial residual = 0.0151123540068, Final residual = 7.89938519842e-10, No Iterations 3
FDICPCG:  Solving for p, Initial residual = 0.0016559052206, Final residual = 1.49023851622e-05, No Iterations 459
FDICPCG:  Solving for p, Initial residual = 0.000107092574974, Final residual = 9.59005398812e-07, No Iterations 140
FDICPCG:  Solving for p, Initial residual = 1.38184047238e-05, Final residual = 7.82928026355e-07, No Iterations 4
diagonal:  Solving for rho, Initial residual = 0, Final residual = 0, No Iterations 0
time step continuity errors : sum local = 1.91942317009e-06, global = -1.91879864471e-06, cumulative = -0.00041597915381
FDICPCG:  Solving for p, Initial residual = 0.000350192950727, Final residual = 3.27727650456e-06, No Iterations 460
FDICPCG:  Solving for p, Initial residual = 3.06034456245e-05, Final residual = 6.73084453625e-07, No Iterations 89
FDICPCG:  Solving for p, Initial residual = 4.14483776177e-06, Final residual = 9.0664185899e-07, No Iterations 3
diagonal:  Solving for rho, Initial residual = 0, Final residual = 0, No Iterations 0
time step continuity errors : sum local = 6.83220051905e-07, global = -5.64950110253e-07, cumulative = -0.00041654410392
FDICPCG:  Solving for p, Initial residual = 0.000101717305232, Final residual = 8.67322742184e-07, No Iterations 449
FDICPCG:  Solving for p, Initial residual = 4.73488291784e-06, Final residual = 5.89836677153e-07, No Iterations 3
FDICPCG:  Solving for p, Initial residual = 1.00283548544e-06, Final residual = 5.37002742785e-07, No Iterations 3
diagonal:  Solving for rho, Initial residual = 0, Final residual = 0, No Iterations 0
time step continuity errors : sum local = 6.40642422665e-07, global = -5.16172558802e-07, cumulative = -0.000417060276479
ExecutionTime = 1.981522 s  ClockTime = 2 s

Courant Number mean: 0.267053428858 max: 0.480340758161
Time = 0.0015s

PIMPLE: Iteration 1
diagonal:  Solving for rho, Initial residual = 0, Final residual = 0, No Iterations 0
DILUPBiCGStab:  Solving for Ux, Initial residual = 0.206708029438, Final residual = 1.7624227735e-09, No Iterations 3
DILUPBiCGStab:  Solving for Uy, Initial residual = 0.206708208377, Final residual = 1.72569281594e-09, No Iterations 3
DILUPBiCGStab:  Solving for Uz, Initial residual = 0.446375023254, Final residual = 2.95092945255e-10, No Iterations 4
DILUPBiCGStab:  Solving for h, Initial residual = 0.235685875939, Final residual = 7.28172145777e-09, No Iterations 3
FDICPCG:  Solving for p, Initial residual = 0.0474219588595, Final residual = 0.00036264318788, No Iterations 509
FDICPCG:  Solving for p, Initial residual = 0.00203243798934, Final residual = 1.74140118411e-05, No Iterations 168
FDICPCG:  Solving for p, Initial residual = 0.000260506731494, Final residual = 2.5146715861e-06, No Iterations 127
diagonal:  Solving for rho, Initial residual = 0, Final residual = 0, No Iterations 0
time step continuity errors : sum local = 2.18787286042e-05, global = -1.3100617412e-05, cumulative = -0.000430160893891
FDICPCG:  Solving for p, Initial residual = 0.0173079611203, Final residual = 0.00016515991277, No Iterations 529
FDICPCG:  Solving for p, Initial residual = 0.000753819901516, Final residual = 5.80231271174e-06, No Iterations 29
FDICPCG:  Solving for p, Initial residual = 9.86653866803e-05, Final residual = 9.20617309052e-07, No Iterations 81
diagonal:  Solving for rho, Initial residual = 0, Final residual = 0, No Iterations 0
time step continuity errors : sum local = 0.000139777868153, global = 0.000139569966096, cumulative = -0.000290590927795
FDICPCG:  Solving for p, Initial residual = 0.00851012396496, Final residual = 8.19086134485e-05, No Iterations 468
FDICPCG:  Solving for p, Initial residual = 0.000208400048763, Final residual = 1.95135206329e-06, No Iterations 185
FDICPCG:  Solving for p, Initial residual = 2.49262813846e-05, Final residual = 9.75674451675e-07, No Iterations 30
diagonal:  Solving for rho, Initial residual = 0, Final residual = 0, No Iterations 0
time step continuity errors : sum local = 0.000148847523392, global = 0.000148778031222, cumulative = -0.000141812896573
PIMPLE: Iteration 2
DILUPBiCGStab:  Solving for Ux, Initial residual = 0.0521184025642, Final residual = 2.94783613444e-09, No Iterations 3
DILUPBiCGStab:  Solving for Uy, Initial residual = 0.0521179217107, Final residual = 2.8613607149e-09, No Iterations 3
DILUPBiCGStab:  Solving for Uz, Initial residual = 0.045916668392, Final residual = 5.68107991082e-09, No Iterations 3
DILUPBiCGStab:  Solving for h, Initial residual = 0.324220253217, Final residual = 2.14156428479e-09, No Iterations 4
FDICPCG:  Solving for p, Initial residual = 0.0275184867329, Final residual = 0.000169225958059, No Iterations 534
FDICPCG:  Solving for p, Initial residual = 0.000574286105727, Final residual = 4.21281548455e-06, No Iterations 31
FDICPCG:  Solving for p, Initial residual = 7.58155734936e-05, Final residual = 6.8827850225e-07, No Iterations 30
diagonal:  Solving for rho, Initial residual = 0, Final residual = 0, No Iterations 0
time step continuity errors : sum local = 2.94493623064e-05, global = -2.94337222265e-05, cumulative = -0.0001712466188
FDICPCG:  Solving for p, Initial residual = 0.00356926018655, Final residual = 2.89814934115e-05, No Iterations 530
FDICPCG:  Solving for p, Initial residual = 0.000182047893107, Final residual = 1.65843128365e-06, No Iterations 22
FDICPCG:  Solving for p, Initial residual = 2.58607985995e-05, Final residual = 7.66613882435e-07, No Iterations 5
diagonal:  Solving for rho, Initial residual = 0, Final residual = 0, No Iterations 0
time step continuity errors : sum local = 5.86902042338e-06, global = 4.6531281207e-06, cumulative = -0.000166593490679
FDICPCG:  Solving for p, Initial residual = 0.00235820612502, Final residual = 2.21872801261e-05, No Iterations 528
FDICPCG:  Solving for p, Initial residual = 3.47239951365e-05, Final residual = 9.64495528527e-07, No Iterations 45
FDICPCG:  Solving for p, Initial residual = 3.77056897565e-06, Final residual = 7.38280297006e-07, No Iterations 3
diagonal:  Solving for rho, Initial residual = 0, Final residual = 0, No Iterations 0
time step continuity errors : sum local = 6.40763338102e-06, global = 5.40864700601e-06, cumulative = -0.000161184843673
PIMPLE: Iteration 3
DILUPBiCGStab:  Solving for Ux, Initial residual = 0.0113441575573, Final residual = 9.35791457888e-09, No Iterations 3
DILUPBiCGStab:  Solving for Uy, Initial residual = 0.011344058876, Final residual = 8.33404631247e-09, No Iterations 3
DILUPBiCGStab:  Solving for Uz, Initial residual = 0.00264278191567, Final residual = 6.05180576951e-09, No Iterations 3
DILUPBiCGStab:  Solving for h, Initial residual = 0.215056709216, Final residual = 1.6513138493e-09, No Iterations 4
FDICPCG:  Solving for p, Initial residual = 0.00920994424214, Final residual = 6.42637057876e-05, No Iterations 510
FDICPCG:  Solving for p, Initial residual = 0.000165033119377, Final residual = 1.16880442001e-06, No Iterations 73
FDICPCG:  Solving for p, Initial residual = 2.10386877049e-05, Final residual = 8.57452280679e-07, No Iterations 13
diagonal:  Solving for rho, Initial residual = 0, Final residual = 0, No Iterations 0
time step continuity errors : sum local = 1.57388931025e-05, global = -1.5738576749e-05, cumulative = -0.000176923420422
FDICPCG:  Solving for p, Initial residual = 0.00122965136845, Final residual = 1.22133701957e-05, No Iterations 495
FDICPCG:  Solving for p, Initial residual = 4.66813006574e-05, Final residual = 9.22247676598e-07, No Iterations 37
FDICPCG:  Solving for p, Initial residual = 6.1938822167e-06, Final residual = 6.92955824519e-07, No Iterations 4
diagonal:  Solving for rho, Initial residual = 0, Final residual = 0, No Iterations 0
time step continuity errors : sum local = 5.16919304913e-06, global = -3.85186938073e-06, cumulative = -0.000180775289803
FDICPCG:  Solving for p, Initial residual = 0.000819439949353, Final residual = 8.05031560616e-06, No Iterations 458
FDICPCG:  Solving for p, Initial residual = 1.10858837458e-05, Final residual = 9.9819470293e-07, No Iterations 62
FDICPCG:  Solving for p, Initial residual = 1.71735755376e-06, Final residual = 9.58204522742e-07, No Iterations 10
diagonal:  Solving for rho, Initial residual = 0, Final residual = 0, No Iterations 0
time step continuity errors : sum local = 5.1396062899e-06, global = -3.56103450591e-06, cumulative = -0.000184336324309
PIMPLE: Iteration 4
DILUPBiCGStab:  Solving for Ux, Initial residual = 0.00286970269298, Final residual = 2.61428425825e-09, No Iterations 3
DILUPBiCGStab:  Solving for Uy, Initial residual = 0.00286968947716, Final residual = 2.5584289989e-09, No Iterations 3
DILUPBiCGStab:  Solving for Uz, Initial residual = 0.0020899242606, Final residual = 2.75002215147e-09, No Iterations 3
DILUPBiCGStab:  Solving for h, Initial residual = 0.103052530665, Final residual = 8.18548609164e-10, No Iterations 4
FDICPCG:  Solving for p, Initial residual = 0.00349304989792, Final residual = 2.45634958528e-05, No Iterations 433
FDICPCG:  Solving for p, Initial residual = 6.27361493205e-05, Final residual = 9.45424708748e-07, No Iterations 159
FDICPCG:  Solving for p, Initial residual = 7.56693001547e-06, Final residual = 5.26555292433e-07, No Iterations 4
diagonal:  Solving for rho, Initial residual = 0, Final residual = 0, No Iterations 0
time step continuity errors : sum local = 6.71629305103e-06, global = -6.71629037276e-06, cumulative = -0.000191052614681
FDICPCG:  Solving for p, Initial residual = 0.000462665576629, Final residual = 3.56952176801e-06, No Iterations 470
FDICPCG:  Solving for p, Initial residual = 1.65857269914e-05, Final residual = 9.0880427003e-07, No Iterations 27
FDICPCG:  Solving for p, Initial residual = 2.59880688051e-06, Final residual = 7.25012217531e-07, No Iterations 3
diagonal:  Solving for rho, Initial residual = 0, Final residual = 0, No Iterations 0
time step continuity errors : sum local = 2.69331250382e-06, global = -2.39609792697e-06, cumulative = -0.000193448712608
FDICPCG:  Solving for p, Initial residual = 0.000306031964746, Final residual = 2.69691128204e-06, No Iterations 423
FDICPCG:  Solving for p, Initial residual = 3.70101780761e-06, Final residual = 8.96703874143e-07, No Iterations 62
FDICPCG:  Solving for p, Initial residual = 1.05208788341e-06, Final residual = 8.04416690864e-07, No Iterations 10
diagonal:  Solving for rho, Initial residual = 0, Final residual = 0, No Iterations 0
time step continuity errors : sum local = 2.61881182219e-06, global = -2.26789893311e-06, cumulative = -0.000195716611541
PIMPLE: Iteration 5
DILUPBiCGStab:  Solving for Ux, Initial residual = 0.00102593710039, Final residual = 9.58027086801e-10, No Iterations 3
DILUPBiCGStab:  Solving for Uy, Initial residual = 0.00102582151397, Final residual = 9.12921143557e-10, No Iterations 3
DILUPBiCGStab:  Solving for Uz, Initial residual = 0.00114218922544, Final residual = 1.73647399653e-09, No Iterations 3
DILUPBiCGStab:  Solving for h, Initial residual = 0.0423409743422, Final residual = 3.41293572868e-10, No Iterations 4
FDICPCG:  Solving for p, Initial residual = 0.00134404334384, Final residual = 1.07671810279e-05, No Iterations 510
FDICPCG:  Solving for p, Initial residual = 2.54023996213e-05, Final residual = 9.11475964418e-07, No Iterations 37
FDICPCG:  Solving for p, Initial residual = 3.43837723713e-06, Final residual = 8.2091889271e-07, No Iterations 3
diagonal:  Solving for rho, Initial residual = 0, Final residual = 0, No Iterations 0
time step continuity errors : sum local = 2.6516308143e-06, global = -2.65162748519e-06, cumulative = -0.000198368239027
FDICPCG:  Solving for p, Initial residual = 0.000179219753962, Final residual = 1.59143797218e-06, No Iterations 459
FDICPCG:  Solving for p, Initial residual = 6.95855228505e-06, Final residual = 9.5717386509e-07, No Iterations 12
FDICPCG:  Solving for p, Initial residual = 1.47909646164e-06, Final residual = 9.28968873253e-07, No Iterations 3
diagonal:  Solving for rho, Initial residual = 0, Final residual = 0, No Iterations 0
time step continuity errors : sum local = 1.1268862078e-06, global = -1.04749203149e-06, cumulative = -0.000199415731058
FDICPCG:  Solving for p, Initial residual = 0.000115804843421, Final residual = 6.65561690149e-07, No Iterations 519
FDICPCG:  Solving for p, Initial residual = 1.01993067531e-06, Final residual = 4.51538286222e-07, No Iterations 3
FDICPCG:  Solving for p, Initial residual = 4.7501470609e-07, Final residual = 5.37175053592e-07, No Iterations 3
diagonal:  Solving for rho, Initial residual = 0, Final residual = 0, No Iterations 0
time step continuity errors : sum local = 1.08662196141e-06, global = -9.95339990716e-07, cumulative = -0.000200411071049
ExecutionTime = 2.912402 s  ClockTime = 3 s

Courant Number mean: 0.362468508079 max: 0.556347371374
Time = 0.002s

PIMPLE: Iteration 1
diagonal:  Solving for rho, Initial residual = 0, Final residual = 0, No Iterations 0
DILUPBiCGStab:  Solving for Ux, Initial residual = 0.246719566293, Final residual = 5.63669813322e-09, No Iterations 3
DILUPBiCGStab:  Solving for Uy, Initial residual = 0.246720241969, Final residual = 6.5776337876e-09, No Iterations 3
DILUPBiCGStab:  Solving for Uz, Initial residual = 0.163950569643, Final residual = 8.05763519772e-10, No Iterations 4
DILUPBiCGStab:  Solving for h, Initial residual = 0.707599401443, Final residual = 4.6420783098e-09, No Iterations 4
FDICPCG:  Solving for p, Initial residual = 0.229298402207, Final residual = 0.00173725422734, No Iterations 518
FDICPCG:  Solving for p, Initial residual = 0.00138475727027, Final residual = 1.18052232549e-05, No Iterations 98
FDICPCG:  Solving for p, Initial residual = 0.000137455625762, Final residual = 1.29205390655e-06, No Iterations 142
diagonal:  Solving for rho, Initial residual = 0, Final residual = 0, No Iterations 0
time step continuity errors : sum local = 7.33557702077e-05, global = -7.33429682757e-05, cumulative = -0.000273754039325
FDICPCG:  Solving for p, Initial residual = 0.0162473794888, Final residual = 0.00011918270137, No Iterations 526
FDICPCG:  Solving for p, Initial residual = 0.000302413905609, Final residual = 2.80064236948e-06, No Iterations 33
FDICPCG:  Solving for p, Initial residual = 4.0898037101e-05, Final residual = 8.93288636562e-07, No Iterations 39
diagonal:  Solving for rho, Initial residual = 0, Final residual = 0, No Iterations 0
time step continuity errors : sum local = 0.000225785528163, global = 0.000225785528163, cumulative = -4.79685111616e-05
FDICPCG:  Solving for p, Initial residual = 0.0102671185162, Final residual = 8.38776811099e-05, No Iterations 518
FDICPCG:  Solving for p, Initial residual = 0.000148237170018, Final residual = 1.2777852168e-06, No Iterations 124
FDICPCG:  Solving for p, Initial residual = 1.70643153155e-05, Final residual = 9.22943913718e-07, No Iterations 4
diagonal:  Solving for rho, Initial residual = 0, Final residual = 0, No Iterations 0
time step continuity errors : sum local = 0.000232090774613, global = 0.000232090774613, cumulative = 0.000184122263451
PIMPLE: Iteration 2
DILUPBiCGStab:  Solving for Ux, Initial residual = 0.0332983308359, Final residual = 3.73239872363e-11, No Iterations 4
DILUPBiCGStab:  Solving for Uy, Initial residual = 0.0332979306049, Final residual = 1.24719925286e-09, No Iterations 3
DILUPBiCGStab:  Solving for Uz, Initial residual = 0.0443527897384, Final residual = 4.42023963899e-09, No Iterations 3
DILUPBiCGStab:  Solving for h, Initial residual = 0.13108677794, Final residual = 8.10181613648e-10, No Iterations 4
FDICPCG:  Solving for p, Initial residual = 0.00798683960226, Final residual = 6.31179540514e-05, No Iterations 508
FDICPCG:  Solving for p, Initial residual = 0.00027117911181, Final residual = 2.111263523e-06, No Iterations 49
FDICPCG:  Solving for p, Initial residual = 3.57641825224e-05, Final residual = 9.09187688115e-07, No Iterations 20
diagonal:  Solving for rho, Initial residual = 0, Final residual = 0, No Iterations 0
time step continuity errors : sum local = 1.18368221543e-05, global = -1.11963306686e-05, cumulative = 0.000172925932782
FDICPCG:  Solving for p, Initial residual = 0.00102590521419, Final residual = 9.33732426067e-06, No Iterations 510
FDICPCG:  Solving for p, Initial residual = 7.6408258288e-05, Final residual = 8.59396665315e-07, No Iterations 64
FDICPCG:  Solving for p, Initial residual = 1.08249395849e-05, Final residual = 6.32252618421e-07, No Iterations 4
diagonal:  Solving for rho, Initial residual = 0, Final residual = 0, No Iterations 0
time step continuity errors : sum local = 1.00790282124e-05, global = -9.99948247178e-06, cumulative = 0.000162926450311
FDICPCG:  Solving for p, Initial residual = 0.000285217590617, Final residual = 2.54610368173e-06, No Iterations 519
FDICPCG:  Solving for p, Initial residual = 1.64039865454e-05, Final residual = 9.35594699135e-07, No Iterations 27
FDICPCG:  Solving for p, Initial residual = 2.75342740121e-06, Final residual = 6.265443058e-07, No Iterations 3
diagonal:  Solving for rho, Initial residual = 0, Final residual = 0, No Iterations 0
time step continuity errors : sum local = 1.03904570169e-05, global = -1.03763877618e-05, cumulative = 0.000152550062549
PIMPLE: Iteration 3
DILUPBiCGStab:  Solving for Ux, Initial residual = 0.00644670388463, Final residual = 1.9348752388e-09, No Iterations 3
DILUPBiCGStab:  Solving for Uy, Initial residual = 0.00644636574243, Final residual = 1.82941937109e-09, No Iterations 3
DILUPBiCGStab:  Solving for Uz, Initial residual = 0.00725403878822, Final residual = 1.64170969186e-09, No Iterations 3
DILUPBiCGStab:  Solving for h, Initial residual = 0.0412654878228, Final residual = 6.89970892189e-09, No Iterations 3
FDICPCG:  Solving for p, Initial residual = 0.00131785307511, Final residual = 1.17900260091e-05, No Iterations 484
FDICPCG:  Solving for p, Initial residual = 3.65795840688e-05, Final residual = 8.56175972801e-07, No Iterations 47
FDICPCG:  Solving for p, Initial residual = 5.04669514353e-06, Final residual = 5.58924771763e-07, No Iterations 4
diagonal:  Solving for rho, Initial residual = 0, Final residual = 0, No Iterations 0
time step continuity errors : sum local = 3.64973372417e-06, global = -1.54600635648e-06, cumulative = 0.000151004056192
FDICPCG:  Solving for p, Initial residual = 0.00018992854268, Final residual = 1.73236707534e-06, No Iterations 512
FDICPCG:  Solving for p, Initial residual = 9.41054033504e-06, Final residual = 9.54659670137e-07, No Iterations 9
FDICPCG:  Solving for p, Initial residual = 1.85691180996e-06, Final residual = 7.32760863985e-07, No Iterations 3
diagonal:  Solving for rho, Initial residual = 0, Final residual = 0, No Iterations 0
time step continuity errors : sum local = 3.32037168207e-06, global = -2.81628566595e-06, cumulative = 0.000148187770526
FDICPCG:  Solving for p, Initial residual = 7.19295656959e-05, Final residual = 9.95854104896e-07, No Iterations 495
FDICPCG:  Solving for p, Initial residual = 2.85696380523e-06, Final residual = 8.6831558708e-07, No Iterations 3
FDICPCG:  Solving for p, Initial residual = 1.02334274607e-06, Final residual = 7.45841188599e-07, No Iterations 7
diagonal:  Solving for rho, Initial residual = 0, Final residual = 0, No Iterations 0
time step continuity errors : sum local = 3.45063840359e-06, global = -2.91511098126e-06, cumulative = 0.000145272659545
PIMPLE: Iteration 4
DILUPBiCGStab:  Solving for Ux, Initial residual = 0.00161860282527, Final residual = 5.03436222023e-10, No Iterations 3
DILUPBiCGStab:  Solving for Uy, Initial residual = 0.00161910379217, Final residual = 4.87032478291e-10, No Iterations 3
DILUPBiCGStab:  Solving for Uz, Initial residual = 0.00105269083124, Final residual = 3.83081680589e-12, No Iterations 4
DILUPBiCGStab:  Solving for h, Initial residual = 0.0114651702656, Final residual = 1.28578937802e-09, No Iterations 3
FDICPCG:  Solving for p, Initial residual = 0.000292086672167, Final residual = 1.88199417516e-06, No Iterations 510
FDICPCG:  Solving for p, Initial residual = 6.89689692748e-06, Final residual = 8.55594559619e-07, No Iterations 11
FDICPCG:  Solving for p, Initial residual = 1.32628242034e-06, Final residual = 6.73165874834e-07, No Iterations 3
diagonal:  Solving for rho, Initial residual = 0, Final residual = 0, No Iterations 0
time step continuity errors : sum local = 1.07638593994e-06, global = 4.49941138812e-08, cumulative = 0.000145317653659
FDICPCG:  Solving for p, Initial residual = 3.9724866026e-05, Final residual = 7.51549487456e-07, No Iterations 495
FDICPCG:  Solving for p, Initial residual = 2.08240970299e-06, Final residual = 6.37882870978e-07, No Iterations 3
FDICPCG:  Solving for p, Initial residual = 7.36738723377e-07, Final residual = 8.55294959504e-07, No Iterations 3
diagonal:  Solving for rho, Initial residual = 0, Final residual = 0, No Iterations 0
time step continuity errors : sum local = 9.11025537676e-07, global = -4.47145703683e-07, cumulative = 0.000144870507955
FDICPCG:  Solving for p, Initial residual = 2.22479863794e-05, Final residual = 8.52978278111e-07, No Iterations 388
FDICPCG:  Solving for p, Initial residual = 1.09106598725e-06, Final residual = 6.08675124676e-07, No Iterations 10
FDICPCG:  Solving for p, Initial residual = 6.38012982867e-07, Final residual = 8.44001505699e-07, No Iterations 3
diagonal:  Solving for rho, Initial residual = 0, Final residual = 0, No Iterations 0
time step continuity errors : sum local = 9.35755466709e-07, global = -4.75161387391e-07, cumulative = 0.000144395346568
PIMPLE: Iteration 5
DILUPBiCGStab:  Solving for Ux, Initial residual = 0.000377403686603, Final residual = 8.81983369588e-11, No Iterations 3
DILUPBiCGStab:  Solving for Uy, Initial residual = 0.000377380732045, Final residual = 9.66920162192e-11, No Iterations 3
DILUPBiCGStab:  Solving for Uz, Initial residual = 0.000179158419487, Final residual = 7.22058604584e-10, No Iterations 3
DILUPBiCGStab:  Solving for h, Initial residual = 0.00343229233406, Final residual = 3.72257324399e-09, No Iterations 3
FDICPCG:  Solving for p, Initial residual = 8.80561893092e-05, Final residual = 9.00727101973e-07, No Iterations 469
FDICPCG:  Solving for p, Initial residual = 2.88610607556e-06, Final residual = 5.59261601528e-07, No Iterations 3
FDICPCG:  Solving for p, Initial residual = 7.12466608983e-07, Final residual = 8.29965401943e-07, No Iterations 3
diagonal:  Solving for rho, Initial residual = 0, Final residual = 0, No Iterations 0
time step continuity errors : sum local = 3.26494137152e-07, global = 1.51362803579e-07, cumulative = 0.000144546709372
FDICPCG:  Solving for p, Initial residual = 1.33460085332e-05, Final residual = 9.88678178094e-07, No Iterations 384
FDICPCG:  Solving for p, Initial residual = 1.38492415069e-06, Final residual = 8.50264127697e-07, No Iterations 10
FDICPCG:  Solving for p, Initial residual = 8.82836586059e-07, Final residual = 9.74341935692e-07, No Iterations 5
diagonal:  Solving for rho, Initial residual = 0, Final residual = 0, No Iterations 0
time step continuity errors : sum local = 2.42837653709e-07, global = -3.33590942468e-08, cumulative = 0.000144513350277
FDICPCG:  Solving for p, Initial residual = 7.59497013261e-06, Final residual = 8.15580601581e-07, No Iterations 261
FDICPCG:  Solving for p, Initial residual = 8.95623348606e-07, Final residual = 9.21780443133e-07, No Iterations 9
FDICPCG:  Solving for p, Initial residual = 9.40042971006e-07, Final residual = 7.65427186532e-07, No Iterations 3
diagonal:  Solving for rho, Initial residual = 0, Final residual = 0, No Iterations 0
time step continuity errors : sum local = 2.45868235865e-07, global = -4.21869951155e-08, cumulative = 0.000144471163282
ExecutionTime = 3.75747 s  ClockTime = 4 s

Courant Number mean: 0.312580318405 max: 0.570203985902
Time = 0.0025s

PIMPLE: Iteration 1
diagonal:  Solving for rho, Initial residual = 0, Final residual = 0, No Iterations 0
DILUPBiCGStab:  Solving for Ux, Initial residual = 0.123448306601, Final residual = 8.56707384636e-09, No Iterations 3
DILUPBiCGStab:  Solving for Uy, Initial residual = 0.123448060427, Final residual = 3.03941496742e-09, No Iterations 3
DILUPBiCGStab:  Solving for Uz, Initial residual = 0.327371023207, Final residual = 9.23500087809e-10, No Iterations 4
DILUPBiCGStab:  Solving for h, Initial residual = 0.437829123775, Final residual = 2.62323757641e-09, No Iterations 4
FDICPCG:  Solving for p, Initial residual = 0.0437022087359, Final residual = 0.000323034953296, No Iterations 526
FDICPCG:  Solving for p, Initial residual = 0.000674436953909, Final residual = 6.02843491254e-06, No Iterations 45
FDICPCG:  Solving for p, Initial residual = 8.50243844843e-05, Final residual = 9.21968897222e-07, No Iterations 56
diagonal:  Solving for rho, Initial residual = 0, Final residual = 0, No Iterations 0
time step continuity errors : sum local = 4.29656361219e-05, global = -4.27584866655e-05, cumulative = 0.000101712676617
FDICPCG:  Solving for p, Initial residual = 0.00685765817155, Final residual = 6.42536056282e-05, No Iterations 458
FDICPCG:  Solving for p, Initial residual = 0.000232418263002, Final residual = 1.87075420971e-06, No Iterations 211
FDICPCG:  Solving for p, Initial residual = 3.04807240967e-05, Final residual = 9.6631165756e-07, No Iterations 65
diagonal:  Solving for rho, Initial residual = 0, Final residual = 0, No Iterations 0
time step continuity errors : sum local = 3.75410018804e-05, global = 3.48522054828e-05, cumulative = 0.0001365648821
FDICPCG:  Solving for p, Initial residual = 0.00205358426366, Final residual = 1.75498506041e-05, No Iterations 500
FDICPCG:  Solving for p, Initial residual = 5.20753527986e-05, Final residual = 9.9282548818e-07, No Iterations 39
FDICPCG:  Solving for p, Initial residual = 7.13713130966e-06, Final residual = 6.00568840775e-07, No Iterations 4
diagonal:  Solving for rho, Initial residual = 0, Final residual = 0, No Iterations 0
time step continuity errors : sum local = 3.79270588067e-05, global = 3.68929997172e-05, cumulative = 0.000173457881817
PIMPLE: Iteration 2
DILUPBiCGStab:  Solving for Ux, Initial residual = 0.0271968682831, Final residual = 4.92311721611e-09, No Iterations 3
DILUPBiCGStab:  Solving for Uy, Initial residual = 0.0271978276348, Final residual = 3.52972181467e-09, No Iterations 3
DILUPBiCGStab:  Solving for Uz, Initial residual = 0.0769776327613, Final residual = 2.2246298121e-09, No Iterations 3
DILUPBiCGStab:  Solving for h, Initial residual = 0.25105200717, Final residual = 5.595842955e-09, No Iterations 3
FDICPCG:  Solving for p, Initial residual = 0.0106505146133, Final residual = 6.54870736587e-05, No Iterations 518
FDICPCG:  Solving for p, Initial residual = 0.000175942049302, Final residual = 1.6137349278e-06, No Iterations 38
FDICPCG:  Solving for p, Initial residual = 2.11313841795e-05, Final residual = 8.78135023515e-07, No Iterations 30
diagonal:  Solving for rho, Initial residual = 0, Final residual = 0, No Iterations 0
time step continuity errors : sum local = 1.97533806373e-05, global = 1.9310198311e-05, cumulative = 0.000192768080128
FDICPCG:  Solving for p, Initial residual = 0.00131184920906, Final residual = 7.60118553491e-06, No Iterations 519
FDICPCG:  Solving for p, Initial residual = 5.41081646582e-05, Final residual = 7.8822661792e-07, No Iterations 14
FDICPCG:  Solving for p, Initial residual = 7.55166116536e-06, Final residual = 5.06884183489e-07, No Iterations 4
diagonal:  Solving for rho, Initial residual = 0, Final residual = 0, No Iterations 0
time step continuity errors : sum local = 1.1824294801e-05, global = -1.17395078323e-05, cumulative = 0.000181028572295
FDICPCG:  Solving for p, Initial residual = 0.000809887688005, Final residual = 7.21442746874e-06, No Iterations 483
FDICPCG:  Solving for p, Initial residual = 1.48775757232e-05, Final residual = 9.0217208356e-07, No Iterations 63
FDICPCG:  Solving for p, Initial residual = 2.25264877854e-06, Final residual = 8.72108421665e-07, No Iterations 3
diagonal:  Solving for rho, Initial residual = 0, Final residual = 0, No Iterations 0
time step continuity errors : sum local = 1.21617807896e-05, global = -1.20397820824e-05, cumulative = 0.000168988790213
PIMPLE: Iteration 3
DILUPBiCGStab:  Solving for Ux, Initial residual = 0.00742159291396, Final residual = 1.22722588829e-09, No Iterations 3
DILUPBiCGStab:  Solving for Uy, Initial residual = 0.0074214432042, Final residual = 4.47277351983e-10, No Iterations 3
DILUPBiCGStab:  Solving for Uz, Initial residual = 0.00958120478803, Final residual = 3.37938436183e-09, No Iterations 3
DILUPBiCGStab:  Solving for h, Initial residual = 0.130016274324, Final residual = 2.8236190038e-09, No Iterations 3
FDICPCG:  Solving for p, Initial residual = 0.00392654507436, Final residual = 3.85264508088e-05, No Iterations 422
FDICPCG:  Solving for p, Initial residual = 6.43297607967e-05, Final residual = 9.29534087178e-07, No Iterations 160
FDICPCG:  Solving for p, Initial residual = 6.78441848739e-06, Final residual = 6.79422732455e-07, No Iterations 4
diagonal:  Solving for rho, Initial residual = 0, Final residual = 0, No Iterations 0
time step continuity errors : sum local = 1.34945243014e-05, global = 1.34945243014e-05, cumulative = 0.000182483314514
FDICPCG:  Solving for p, Initial residual = 0.000468284472247, Final residual = 3.42848420502e-06, No Iterations 433
FDICPCG:  Solving for p, Initial residual = 1.466273856e-05, Final residual = 9.14754606133e-07, No Iterations 37
FDICPCG:  Solving for p, Initial residual = 2.31088653927e-06, Final residual = 7.35717302e-07, No Iterations 3
diagonal:  Solving for rho, Initial residual = 0, Final residual = 0, No Iterations 0
time step continuity errors : sum local = 4.72680793092e-06, global = 2.3017039624e-06, cumulative = 0.000184785018477
FDICPCG:  Solving for p, Initial residual = 0.000309475546169, Final residual = 3.04411484048e-06, No Iterations 458
FDICPCG:  Solving for p, Initial residual = 4.543802584e-06, Final residual = 8.47485372722e-07, No Iterations 27
FDICPCG:  Solving for p, Initial residual = 1.05754477521e-06, Final residual = 9.67920251986e-07, No Iterations 6
diagonal:  Solving for rho, Initial residual = 0, Final residual = 0, No Iterations 0
time step continuity errors : sum local = 5.03145063172e-06, global = 2.08516172365e-06, cumulative = 0.0001868701802
PIMPLE: Iteration 4
DILUPBiCGStab:  Solving for Ux, Initial residual = 0.00177491332009, Final residual = 3.9011378863e-10, No Iterations 3
DILUPBiCGStab:  Solving for Uy, Initial residual = 0.00177548643887, Final residual = 2.068364021e-10, No Iterations 3
DILUPBiCGStab:  Solving for Uz, Initial residual = 0.00141236901117, Final residual = 3.66832228036e-10, No Iterations 3
DILUPBiCGStab:  Solving for h, Initial residual = 0.057104142307, Final residual = 1.33833338336e-09, No Iterations 3
FDICPCG:  Solving for p, Initial residual = 0.00138090187518, Final residual = 1.29933243011e-05, No Iterations 408
FDICPCG:  Solving for p, Initial residual = 2.47302101086e-05, Final residual = 8.10856237805e-07, No Iterations 175
FDICPCG:  Solving for p, Initial residual = 3.02345016571e-06, Final residual = 7.64262613347e-07, No Iterations 3
diagonal:  Solving for rho, Initial residual = 0, Final residual = 0, No Iterations 0
time step continuity errors : sum local = 6.08079581849e-06, global = 6.08079521336e-06, cumulative = 0.000192950975414
FDICPCG:  Solving for p, Initial residual = 0.000171900428292, Final residual = 1.34711195191e-06, No Iterations 419
FDICPCG:  Solving for p, Initial residual = 6.19625975902e-06, Final residual = 8.66875800516e-07, No Iterations 11
FDICPCG:  Solving for p, Initial residual = 1.34823285691e-06, Final residual = 7.17910566341e-07, No Iterations 3
diagonal:  Solving for rho, Initial residual = 0, Final residual = 0, No Iterations 0
time step continuity errors : sum local = 2.30969718303e-06, global = 2.09013853041e-06, cumulative = 0.000195041113944
FDICPCG:  Solving for p, Initial residual = 0.000113832963614, Final residual = 1.13044666867e-06, No Iterations 424
FDICPCG:  Solving for p, Initial residual = 1.46809497821e-06, Final residual = 7.52046735928e-07, No Iterations 9
FDICPCG:  Solving for p, Initial residual = 7.80688584545e-07, Final residual = 6.07591900871e-07, No Iterations 3
diagonal:  Solving for rho, Initial residual = 0, Final residual = 0, No Iterations 0
time step continuity errors : sum local = 2.26172354123e-06, global = 1.98136082055e-06, cumulative = 0.000197022474765
PIMPLE: Iteration 5
DILUPBiCGStab:  Solving for Ux, Initial residual = 0.000889390813198, Final residual = 9.83854221465e-11, No Iterations 3
DILUPBiCGStab:  Solving for Uy, Initial residual = 0.000889715815368, Final residual = 9.72977490983e-11, No Iterations 3
DILUPBiCGStab:  Solving for Uz, Initial residual = 0.000894741031076, Final residual = 1.69559199049e-10, No Iterations 3
DILUPBiCGStab:  Solving for h, Initial residual = 0.0227615337244, Final residual = 8.82126711051e-09, No Iterations 3
FDICPCG:  Solving for p, Initial residual = 0.000516758044158, Final residual = 5.14358344061e-06, No Iterations 390
FDICPCG:  Solving for p, Initial residual = 1.01196868471e-05, Final residual = 7.79558899993e-07, No Iterations 124
FDICPCG:  Solving for p, Initial residual = 1.54576868343e-06, Final residual = 8.85127096399e-07, No Iterations 3
diagonal:  Solving for rho, Initial residual = 0, Final residual = 0, No Iterations 0
time step continuity errors : sum local = 2.42981202068e-06, global = 2.42980237753e-06, cumulative = 0.000199452277142
FDICPCG:  Solving for p, Initial residual = 6.60884356338e-05, Final residual = 9.35003551214e-07, No Iterations 409
FDICPCG:  Solving for p, Initial residual = 2.76877898327e-06, Final residual = 6.46030280963e-07, No Iterations 3
FDICPCG:  Solving for p, Initial residual = 7.95044602706e-07, Final residual = 9.39165813497e-07, No Iterations 3
diagonal:  Solving for rho, Initial residual = 0, Final residual = 0, No Iterations 0
time step continuity errors : sum local = 1.02955764414e-06, global = 9.6099716356e-07, cumulative = 0.000200413274306
FDICPCG:  Solving for p, Initial residual = 4.31576340552e-05, Final residual = 7.8742122523e-07, No Iterations 286
FDICPCG:  Solving for p, Initial residual = 9.13885597022e-07, Final residual = 9.04757239164e-07, No Iterations 7
FDICPCG:  Solving for p, Initial residual = 9.26560141911e-07, Final residual = 6.21466561313e-07, No Iterations 3
diagonal:  Solving for rho, Initial residual = 0, Final residual = 0, No Iterations 0
time step continuity errors : sum local = 9.93290228334e-07, global = 9.16829435153e-07, cumulative = 0.000201330103741
ExecutionTime = 4.615352 s  ClockTime = 4 s

Courant Number mean: 0.210201905505 max: 0.585669743399
Time = 0.003s

PIMPLE: Iteration 1
diagonal:  Solving for rho, Initial residual = 0, Final residual = 0, No Iterations 0
DILUPBiCGStab:  Solving for Ux, Initial residual = 0.189810661624, Final residual = 2.69377110888e-09, No Iterations 3
DILUPBiCGStab:  Solving for Uy, Initial residual = 0.189812332097, Final residual = 2.0326662985e-09, No Iterations 3
DILUPBiCGStab:  Solving for Uz, Initial residual = 0.343290589228, Final residual = 1.63432388389e-10, No Iterations 4
DILUPBiCGStab:  Solving for h, Initial residual = 0.375556106666, Final residual = 8.36268610523e-09, No Iterations 3
FDICPCG:  Solving for p, Initial residual = 0.0696849614323, Final residual = 0.000561010517832, No Iterations 518
FDICPCG:  Solving for p, Initial residual = 0.00556745599058, Final residual = 3.81064512961e-05, No Iterations 39
FDICPCG:  Solving for p, Initial residual = 0.000544196853615, Final residual = 4.47447342999e-06, No Iterations 65
diagonal:  Solving for rho, Initial residual = 0, Final residual = 0, No Iterations 0
time step continuity errors : sum local = 3.54737154173e-05, global = 3.52725777552e-05, cumulative = 0.000236602681496
FDICPCG:  Solving for p, Initial residual = 0.0382728340608, Final residual = 0.000353269385456, No Iterations 512
FDICPCG:  Solving for p, Initial residual = 0.00214714665475, Final residual = 1.74333319115e-05, No Iterations 48
FDICPCG:  Solving for p, Initial residual = 0.000295281067879, Final residual = 2.50634751894e-06, No Iterations 81
diagonal:  Solving for rho, Initial residual = 0, Final residual = 0, No Iterations 0
time step continuity errors : sum local = 0.000152202913701, global = -0.000152202913701, cumulative = 8.4399767795e-05
FDICPCG:  Solving for p, Initial residual = 0.0241591191376, Final residual = 0.00022541771403, No Iterations 484
FDICPCG:  Solving for p, Initial residual = 0.000705579007381, Final residual = 6.83349147067e-06, No Iterations 159
FDICPCG:  Solving for p, Initial residual = 8.52889678838e-05, Final residual = 8.98778505548e-07, No Iterations 177
diagonal:  Solving for rho, Initial residual = 0, Final residual = 0, No Iterations 0
time step continuity errors : sum local = 0.000154690041808, global = -0.000154690041808, cumulative = -7.02902740129e-05
PIMPLE: Iteration 2
DILUPBiCGStab:  Solving for Ux, Initial residual = 0.0312761110023, Final residual = 1.60449799531e-09, No Iterations 3
DILUPBiCGStab:  Solving for Uy, Initial residual = 0.031276167687, Final residual = 1.70510464784e-09, No Iterations 3
DILUPBiCGStab:  Solving for Uz, Initial residual = 0.043142771826, Final residual = 7.43026094877e-09, No Iterations 3
DILUPBiCGStab:  Solving for h, Initial residual = 0.212735684995, Final residual = 2.69797056184e-09, No Iterations 3
FDICPCG:  Solving for p, Initial residual = 0.0321510188342, Final residual = 0.000204434263488, No Iterations 509
FDICPCG:  Solving for p, Initial residual = 0.00126665810359, Final residual = 9.63732330395e-06, No Iterations 98
FDICPCG:  Solving for p, Initial residual = 0.000168213125036, Final residual = 1.64901044324e-06, No Iterations 81
diagonal:  Solving for rho, Initial residual = 0, Final residual = 0, No Iterations 0
time step continuity errors : sum local = 1.88955117917e-05, global = 1.8831641947e-05, cumulative = -5.14586320659e-05
FDICPCG:  Solving for p, Initial residual = 0.00902608972855, Final residual = 8.16393804499e-05, No Iterations 484
FDICPCG:  Solving for p, Initial residual = 0.000402805822824, Final residual = 3.26791070089e-06, No Iterations 88
FDICPCG:  Solving for p, Initial residual = 5.45054639261e-05, Final residual = 9.51036401532e-07, No Iterations 55
diagonal:  Solving for rho, Initial residual = 0, Final residual = 0, No Iterations 0
time step continuity errors : sum local = 4.67040591676e-06, global = -3.10909529516e-06, cumulative = -5.4567727361e-05
FDICPCG:  Solving for p, Initial residual = 0.00501535074086, Final residual = 4.44621087271e-05, No Iterations 483
FDICPCG:  Solving for p, Initial residual = 8.15690936801e-05, Final residual = 6.27950590987e-07, No Iterations 124
FDICPCG:  Solving for p, Initial residual = 8.74242759382e-06, Final residual = 5.44603829954e-07, No Iterations 4
diagonal:  Solving for rho, Initial residual = 0, Final residual = 0, No Iterations 0
time step continuity errors : sum local = 5.81966040892e-06, global = -4.1450406024e-06, cumulative = -5.87127679634e-05
PIMPLE: Iteration 3
DILUPBiCGStab:  Solving for Ux, Initial residual = 0.00699748880418, Final residual = 3.77460532541e-10, No Iterations 3
DILUPBiCGStab:  Solving for Uy, Initial residual = 0.0069973863398, Final residual = 4.42798623342e-10, No Iterations 3
DILUPBiCGStab:  Solving for Uz, Initial residual = 0.00200451676247, Final residual = 1.17192724351e-10, No Iterations 3
DILUPBiCGStab:  Solving for h, Initial residual = 0.174032163174, Final residual = 2.08347808039e-09, No Iterations 3
FDICPCG:  Solving for p, Initial residual = 0.0181970353834, Final residual = 0.000179266610231, No Iterations 433
FDICPCG:  Solving for p, Initial residual = 0.000438941826672, Final residual = 3.70773084841e-06, No Iterations 134
FDICPCG:  Solving for p, Initial residual = 4.76125791131e-05, Final residual = 9.51758366643e-07, No Iterations 74
diagonal:  Solving for rho, Initial residual = 0, Final residual = 0, No Iterations 0
time step continuity errors : sum local = 9.61761634847e-06, global = 9.59889001075e-06, cumulative = -4.91138779527e-05
FDICPCG:  Solving for p, Initial residual = 0.00375267090904, Final residual = 3.59848726518e-05, No Iterations 501
FDICPCG:  Solving for p, Initial residual = 0.000112511517667, Final residual = 9.13699842266e-07, No Iterations 39
FDICPCG:  Solving for p, Initial residual = 1.40865136344e-05, Final residual = 6.96461062047e-07, No Iterations 4
diagonal:  Solving for rho, Initial residual = 0, Final residual = 0, No Iterations 0
time step continuity errors : sum local = 2.9028106464e-06, global = 2.25112421568e-06, cumulative = -4.6862753737e-05
FDICPCG:  Solving for p, Initial residual = 0.00221789617147, Final residual = 1.69233087983e-05, No Iterations 433
FDICPCG:  Solving for p, Initial residual = 2.54146366116e-05, Final residual = 8.82204034787e-07, No Iterations 113
FDICPCG:  Solving for p, Initial residual = 2.94954219675e-06, Final residual = 8.60556645199e-07, No Iterations 3
diagonal:  Solving for rho, Initial residual = 0, Final residual = 0, No Iterations 0
time step continuity errors : sum local = 2.85591499987e-06, global = 1.89294371936e-06, cumulative = -4.49698100176e-05
PIMPLE: Iteration 4
DILUPBiCGStab:  Solving for Ux, Initial residual = 0.00208113885876, Final residual = 1.21522734923e-10, No Iterations 3
DILUPBiCGStab:  Solving for Uy, Initial residual = 0.00208108900145, Final residual = 1.5221969868e-10, No Iterations 3
DILUPBiCGStab:  Solving for Uz, Initial residual = 0.00231729283047, Final residual = 1.5933431255e-10, No Iterations 3
DILUPBiCGStab:  Solving for h, Initial residual = 0.0917437152428, Final residual = 1.114962675e-09, No Iterations 3
FDICPCG:  Solving for p, Initial residual = 0.00949390262802, Final residual = 9.14537872976e-05, No Iterations 415
FDICPCG:  Solving for p, Initial residual = 0.000213029080782, Final residual = 2.06055453764e-06, No Iterations 153
FDICPCG:  Solving for p, Initial residual = 2.57252771881e-05, Final residual = 9.58284877731e-07, No Iterations 39
diagonal:  Solving for rho, Initial residual = 0, Final residual = 0, No Iterations 0
time step continuity errors : sum local = 4.15106261708e-06, global = 4.14822624222e-06, cumulative = -4.08215837754e-05
FDICPCG:  Solving for p, Initial residual = 0.00157528052922, Final residual = 1.37085355315e-05, No Iterations 495
FDICPCG:  Solving for p, Initial residual = 5.18219480583e-05, Final residual = 8.70267226869e-07, No Iterations 37
FDICPCG:  Solving for p, Initial residual = 6.64820660668e-06, Final residual = 4.47803736373e-07, No Iterations 4
diagonal:  Solving for rho, Initial residual = 0, Final residual = 0, No Iterations 0
time step continuity errors : sum local = 1.5079404734e-06, global = 1.32374037783e-06, cumulative = -3.94978433976e-05
FDICPCG:  Solving for p, Initial residual = 0.000955976430334, Final residual = 8.23057807007e-06, No Iterations 444
FDICPCG:  Solving for p, Initial residual = 1.11100182754e-05, Final residual = 9.42680981019e-07, No Iterations 142
FDICPCG:  Solving for p, Initial residual = 1.70332108261e-06, Final residual = 9.01943760588e-07, No Iterations 8
diagonal:  Solving for rho, Initial residual = 0, Final residual = 0, No Iterations 0
time step continuity errors : sum local = 1.42504764232e-06, global = 1.20566706818e-06, cumulative = -3.82921763294e-05
PIMPLE: Iteration 5
DILUPBiCGStab:  Solving for Ux, Initial residual = 0.000858725732959, Final residual = 4.57695772738e-11, No Iterations 3
DILUPBiCGStab:  Solving for Uy, Initial residual = 0.000858698453241, Final residual = 4.58093067133e-11, No Iterations 3
DILUPBiCGStab:  Solving for Uz, Initial residual = 0.00122807116428, Final residual = 8.25746652237e-11, No Iterations 3
DILUPBiCGStab:  Solving for h, Initial residual = 0.0407793952841, Final residual = 7.88717732687e-09, No Iterations 3
FDICPCG:  Solving for p, Initial residual = 0.00433715131484, Final residual = 3.5523523489e-05, No Iterations 434
FDICPCG:  Solving for p, Initial residual = 8.81164570082e-05, Final residual = 9.35241162245e-07, No Iterations 195
FDICPCG:  Solving for p, Initial residual = 1.05189277531e-05, Final residual = 6.75019028545e-07, No Iterations 4
diagonal:  Solving for rho, Initial residual = 0, Final residual = 0, No Iterations 0
time step continuity errors : sum local = 1.68458096136e-06, global = 1.68422091668e-06, cumulative = -3.66079554127e-05
FDICPCG:  Solving for p, Initial residual = 0.0006258262503, Final residual = 5.90665061423e-06, No Iterations 420
FDICPCG:  Solving for p, Initial residual = 2.27456917166e-05, Final residual = 7.50982981301e-07, No Iterations 98
FDICPCG:  Solving for p, Initial residual = 3.1032689275e-06, Final residual = 7.2692039568e-07, No Iterations 3
diagonal:  Solving for rho, Initial residual = 0, Final residual = 0, No Iterations 0
time step continuity errors : sum local = 6.66459843014e-07, global = 6.04298448641e-07, cumulative = -3.60036569641e-05
FDICPCG:  Solving for p, Initial residual = 0.000393180532029, Final residual = 3.50828862766e-06, No Iterations 408
FDICPCG:  Solving for p, Initial residual = 4.3929373023e-06, Final residual = 9.33089666043e-07, No Iterations 113
FDICPCG:  Solving for p, Initial residual = 1.0956237305e-06, Final residual = 9.90227613915e-07, No Iterations 4
diagonal:  Solving for rho, Initial residual = 0, Final residual = 0, No Iterations 0
time step continuity errors : sum local = 6.33666172832e-07, global = 5.62905900948e-07, cumulative = -3.54407510631e-05
ExecutionTime = 5.599924 s  ClockTime = 5 s

Courant Number mean: 0.14977146009 max: 0.591230368592
Time = 0.0035s

PIMPLE: Iteration 1
diagonal:  Solving for rho, Initial residual = 0, Final residual = 0, No Iterations 0
DILUPBiCGStab:  Solving for Ux, Initial residual = 0.125534936264, Final residual = 9.14677705926e-10, No Iterations 3
DILUPBiCGStab:  Solving for Uy, Initial residual = 0.125534036273, Final residual = 8.04382951443e-10, No Iterations 3
DILUPBiCGStab:  Solving for Uz, Initial residual = 0.160006922736, Final residual = 8.84882146907e-10, No Iterations 3
DILUPBiCGStab:  Solving for h, Initial residual = 0.749227794499, Final residual = 1.05571325864e-09, No Iterations 4
FDICPCG:  Solving for p, Initial residual = 0.507768977313, Final residual = 0.00331039429758, No Iterations 458
FDICPCG:  Solving for p, Initial residual = 0.000871510559042, Final residual = 7.56961423578e-06, No Iterations 149
FDICPCG:  Solving for p, Initial residual = 9.86206297129e-05, Final residual = 8.16549244711e-07, No Iterations 116
diagonal:  Solving for rho, Initial residual = 0, Final residual = 0, No Iterations 0
time step continuity errors : sum local = 5.50432897445e-05, global = 5.50059550448e-05, cumulative = 1.95652039817e-05
FDICPCG:  Solving for p, Initial residual = 0.012692875484, Final residual = 9.45881522714e-05, No Iterations 469
FDICPCG:  Solving for p, Initial residual = 0.000296235335436, Final residual = 2.78129673838e-06, No Iterations 175
FDICPCG:  Solving for p, Initial residual = 3.93409539949e-05, Final residual = 9.73342752651e-07, No Iterations 91
diagonal:  Solving for rho, Initial residual = 0, Final residual = 0, No Iterations 0
time step continuity errors : sum local = 0.000139312203895, global = -0.000139300672728, cumulative = -0.000119735468746
FDICPCG:  Solving for p, Initial residual = 0.0066356990202, Final residual = 3.98394880629e-05, No Iterations 509
FDICPCG:  Solving for p, Initial residual = 8.1725227339e-05, Final residual = 8.87034023337e-07, No Iterations 47
FDICPCG:  Solving for p, Initial residual = 1.01068692792e-05, Final residual = 5.69897265923e-07, No Iterations 4
diagonal:  Solving for rho, Initial residual = 0, Final residual = 0, No Iterations 0
time step continuity errors : sum local = 0.000149632806049, global = -0.000149632806049, cumulative = -0.000269368274795
PIMPLE: Iteration 2
DILUPBiCGStab:  Solving for Ux, Initial residual = 0.0159430598486, Final residual = 1.02693364838e-09, No Iterations 3
DILUPBiCGStab:  Solving for Uy, Initial residual = 0.0159424091277, Final residual = 1.12343680987e-09, No Iterations 3
DILUPBiCGStab:  Solving for Uz, Initial residual = 0.0546379124019, Final residual = 4.29620899668e-09, No Iterations 3
DILUPBiCGStab:  Solving for h, Initial residual = 0.145268467465, Final residual = 1.92686231298e-09, No Iterations 3
FDICPCG:  Solving for p, Initial residual = 0.00561250473215, Final residual = 5.15256125308e-05, No Iterations 495
FDICPCG:  Solving for p, Initial residual = 0.00015265221061, Final residual = 1.50853543853e-06, No Iterations 63
FDICPCG:  Solving for p, Initial residual = 1.98795232036e-05, Final residual = 8.97069015391e-07, No Iterations 19
diagonal:  Solving for rho, Initial residual = 0, Final residual = 0, No Iterations 0
time step continuity errors : sum local = 8.39347393996e-06, global = 2.99649227404e-06, cumulative = -0.000266371782521
FDICPCG:  Solving for p, Initial residual = 0.000948126072546, Final residual = 8.41237651647e-06, No Iterations 505
FDICPCG:  Solving for p, Initial residual = 4.47223019841e-05, Final residual = 7.40865860206e-07, No Iterations 20
FDICPCG:  Solving for p, Initial residual = 6.35482446162e-06, Final residual = 3.76578556337e-07, No Iterations 4
diagonal:  Solving for rho, Initial residual = 0, Final residual = 0, No Iterations 0
time step continuity errors : sum local = 7.64794009212e-06, global = 7.48982780129e-06, cumulative = -0.00025888195472
FDICPCG:  Solving for p, Initial residual = 0.000187766755518, Final residual = 1.80275378378e-06, No Iterations 510
FDICPCG:  Solving for p, Initial residual = 1.05341107939e-05, Final residual = 9.03938871278e-07, No Iterations 3
FDICPCG:  Solving for p, Initial residual = 2.00952315299e-06, Final residual = 7.51623341082e-07, No Iterations 3
diagonal:  Solving for rho, Initial residual = 0, Final residual = 0, No Iterations 0
time step continuity errors : sum local = 7.88298212656e-06, global = 7.25951865539e-06, cumulative = -0.000251622436065
PIMPLE: Iteration 3
DILUPBiCGStab:  Solving for Ux, Initial residual = 0.00411868760705, Final residual = 4.79202221577e-10, No Iterations 3
DILUPBiCGStab:  Solving for Uy, Initial residual = 0.00411865080475, Final residual = 5.20850818045e-10, No Iterations 3
DILUPBiCGStab:  Solving for Uz, Initial residual = 0.0092071137533, Final residual = 8.85777588968e-10, No Iterations 3
DILUPBiCGStab:  Solving for h, Initial residual = 0.0381421002857, Final residual = 7.78417119917e-09, No Iterations 3
FDICPCG:  Solving for p, Initial residual = 0.00103934783699, Final residual = 1.01512781358e-05, No Iterations 505
FDICPCG:  Solving for p, Initial residual = 3.35548425449e-05, Final residual = 9.96902306209e-07, No Iterations 21
FDICPCG:  Solving for p, Initial residual = 4.97775744833e-06, Final residual = 9.41232605188e-07, No Iterations 3
diagonal:  Solving for rho, Initial residual = 0, Final residual = 0, No Iterations 0
time step continuity errors : sum local = 2.84896914715e-06, global = -1.45783902865e-06, cumulative = -0.000253080275093
FDICPCG:  Solving for p, Initial residual = 0.000169342012767, Final residual = 1.20234913781e-06, No Iterations 512
FDICPCG:  Solving for p, Initial residual = 8.35545651906e-06, Final residual = 7.26959176805e-07, No Iterations 3
FDICPCG:  Solving for p, Initial residual = 1.66082981139e-06, Final residual = 5.48472098496e-07, No Iterations 3
diagonal:  Solving for rho, Initial residual = 0, Final residual = 0, No Iterations 0
time step continuity errors : sum local = 2.59754219762e-06, global = 6.6959328556e-07, cumulative = -0.000252410681808
FDICPCG:  Solving for p, Initial residual = 7.42717167441e-05, Final residual = 8.74312087811e-07, No Iterations 469
FDICPCG:  Solving for p, Initial residual = 2.31130894667e-06, Final residual = 5.63005818322e-07, No Iterations 3
FDICPCG:  Solving for p, Initial residual = 6.97046380464e-07, Final residual = 6.79912440918e-07, No Iterations 3
diagonal:  Solving for rho, Initial residual = 0, Final residual = 0, No Iterations 0
time step continuity errors : sum local = 2.72162914536e-06, global = 7.0267376687e-07, cumulative = -0.000251708008041
PIMPLE: Iteration 4
DILUPBiCGStab:  Solving for Ux, Initial residual = 0.00120074057911, Final residual = 3.5809223526e-10, No Iterations 3
DILUPBiCGStab:  Solving for Uy, Initial residual = 0.00120083982708, Final residual = 7.79800142265e-10, No Iterations 3
DILUPBiCGStab:  Solving for Uz, Initial residual = 0.00114300347456, Final residual = 1.71383000284e-10, No Iterations 3
DILUPBiCGStab:  Solving for h, Initial residual = 0.0131189361263, Final residual = 2.72425999758e-09, No Iterations 3
FDICPCG:  Solving for p, Initial residual = 0.000346740679072, Final residual = 2.55158763551e-06, No Iterations 520
FDICPCG:  Solving for p, Initial residual = 1.28935051639e-05, Final residual = 9.5018433836e-07, No Iterations 12
FDICPCG:  Solving for p, Initial residual = 2.48003877401e-06, Final residual = 7.41385680327e-07, No Iterations 3
diagonal:  Solving for rho, Initial residual = 0, Final residual = 0, No Iterations 0
time step continuity errors : sum local = 9.93053727024e-07, global = -9.50737829549e-07, cumulative = -0.000252658745871
FDICPCG:  Solving for p, Initial residual = 4.62187594546e-05, Final residual = 9.90223865129e-07, No Iterations 461
FDICPCG:  Solving for p, Initial residual = 3.28161286587e-06, Final residual = 4.61471134304e-07, No Iterations 3
FDICPCG:  Solving for p, Initial residual = 7.34428886902e-07, Final residual = 4.21451686332e-07, No Iterations 3
diagonal:  Solving for rho, Initial residual = 0, Final residual = 0, No Iterations 0
time step continuity errors : sum local = 7.16873253694e-07, global = -2.13554554085e-07, cumulative = -0.000252872300425
FDICPCG:  Solving for p, Initial residual = 2.69359322457e-05, Final residual = 8.95538763028e-07, No Iterations 337
FDICPCG:  Solving for p, Initial residual = 1.32852148518e-06, Final residual = 6.84134765242e-07, No Iterations 3
FDICPCG:  Solving for p, Initial residual = 7.24440714644e-07, Final residual = 7.60842740929e-07, No Iterations 3
diagonal:  Solving for rho, Initial residual = 0, Final residual = 0, No Iterations 0
time step continuity errors : sum local = 7.31375207741e-07, global = -1.94909259655e-07, cumulative = -0.000253067209684
PIMPLE: Iteration 5
DILUPBiCGStab:  Solving for Ux, Initial residual = 0.000400900049593, Final residual = 1.30455203264e-10, No Iterations 3
DILUPBiCGStab:  Solving for Uy, Initial residual = 0.000401242018401, Final residual = 2.59091669808e-10, No Iterations 3
DILUPBiCGStab:  Solving for Uz, Initial residual = 0.000154611264233, Final residual = 2.19559745359e-11, No Iterations 3
DILUPBiCGStab:  Solving for h, Initial residual = 0.00519032967846, Final residual = 1.19435093278e-09, No Iterations 3
FDICPCG:  Solving for p, Initial residual = 0.000126818921868, Final residual = 1.15666470341e-06, No Iterations 440
FDICPCG:  Solving for p, Initial residual = 6.36271721395e-06, Final residual = 7.17148356285e-07, No Iterations 3
FDICPCG:  Solving for p, Initial residual = 1.42177694968e-06, Final residual = 5.16699636484e-07, No Iterations 3
diagonal:  Solving for rho, Initial residual = 0, Final residual = 0, No Iterations 0
time step continuity errors : sum local = 4.17684777928e-07, global = -4.17299297556e-07, cumulative = -0.000253484508982
FDICPCG:  Solving for p, Initial residual = 1.83950060563e-05, Final residual = 9.53470483082e-07, No Iterations 374
FDICPCG:  Solving for p, Initial residual = 1.99667885275e-06, Final residual = 4.5999029649e-07, No Iterations 3
FDICPCG:  Solving for p, Initial residual = 5.8233624648e-07, Final residual = 4.98275731276e-07, No Iterations 3
diagonal:  Solving for rho, Initial residual = 0, Final residual = 0, No Iterations 0
time step continuity errors : sum local = 2.0016268881e-07, global = -1.48998379703e-07, cumulative = -0.000253633507362
FDICPCG:  Solving for p, Initial residual = 1.02695211898e-05, Final residual = 9.82542356121e-07, No Iterations 224
FDICPCG:  Solving for p, Initial residual = 1.17257160504e-06, Final residual = 7.81237842744e-07, No Iterations 3
FDICPCG:  Solving for p, Initial residual = 8.08888988703e-07, Final residual = 7.5376522379e-07, No Iterations 3
diagonal:  Solving for rho, Initial residual = 0, Final residual = 0, No Iterations 0
time step continuity errors : sum local = 1.97547753422e-07, global = -1.39996147608e-07, cumulative = -0.000253773503509
ExecutionTime = 6.420026 s  ClockTime = 6 s

Courant Number mean: 0.190944146882 max: 0.598051735232
Time = 0.004s

PIMPLE: Iteration 1
diagonal:  Solving for rho, Initial residual = 0, Final residual = 0, No Iterations 0
[...]
diagonal:  Solving for rho, Initial residual = 0, Final residual = 0, No Iterations 0
time step continuity errors : sum local = 4.68800568958e-05, global = -4.68800568958e-05, cumulative = -0.000160373761161
PIMPLE: Iteration 2
DILUPBiCGStab:  Solving for Ux, Initial residual = 0.00551107052506, Final residual = 6.24300985553e-10, No Iterations 3
DILUPBiCGStab:  Solving for Uy, Initial residual = 0.00551067621481, Final residual = 7.20803719269e-10, No Iterations 3
DILUPBiCGStab:  Solving for Uz, Initial residual = 0.0223788180108, Final residual = 7.8374244464e-10, No Iterations 3
DILUPBiCGStab:  Solving for h, Initial residual = 0.105084340515, Final residual = 2.89147318142e-09, No Iterations 3
FDICPCG:  Solving for p, Initial residual = 0.00387823851301, Final residual = 2.74595064383e-05, No Iterations 512
FDICPCG:  Solving for p, Initial residual = 0.000102165488789, Final residual = 8.73659239087e-07, No Iterations 73
FDICPCG:  Solving for p, Initial residual = 1.43066143356e-05, Final residual = 7.11664560059e-07, No Iterations 4
diagonal:  Solving for rho, Initial residual = 0, Final residual = 0, No Iterations 0
time step continuity errors : sum local = 1.40861886826e-06, global = -6.86463907885e-07, cumulative = -0.000161060225068
FDICPCG:  Solving for p, Initial residual = 0.000647323551801, Final residual = 4.09406275175e-06, No Iterations 505
FDICPCG:  Solving for p, Initial residual = 2.50294792517e-05, Final residual = 8.88457944993e-07, No Iterations 18
FDICPCG:  Solving for p, Initial residual = 3.83851586156e-06, Final residual = 7.46993676347e-07, No Iterations 3
diagonal:  Solving for rho, Initial residual = 0, Final residual = 0, No Iterations 0
time step continuity errors : sum local = 3.84731109962e-06, global = 3.84730917487e-06, cumulative = -0.000157212915894
FDICPCG:  Solving for p, Initial residual = 0.00034411460475, Final residual = 3.11953170331e-06, No Iterations 495
FDICPCG:  Solving for p, Initial residual = 6.41594882458e-06, Final residual = 8.52722138823e-07, No Iterations 37
FDICPCG:  Solving for p, Initial residual = 1.28539361286e-06, Final residual = 7.40154079826e-07, No Iterations 10
diagonal:  Solving for rho, Initial residual = 0, Final residual = 0, No Iterations 0
time step continuity errors : sum local = 4.04527857206e-06, global = 4.04527857206e-06, cumulative = -0.000153167637322
PIMPLE: Iteration 3
DILUPBiCGStab:  Solving for Ux, Initial residual = 0.00121488232227, Final residual = 2.61287363451e-10, No Iterations 3
DILUPBiCGStab:  Solving for Uy, Initial residual = 0.00121473558421, Final residual = 2.63931266624e-10, No Iterations 3
DILUPBiCGStab:  Solving for Uz, Initial residual = 0.00295774044067, Final residual = 1.4498799615e-09, No Iterations 3
DILUPBiCGStab:  Solving for h, Initial residual = 0.056057728509, Final residual = 1.88882413301e-09, No Iterations 3
FDICPCG:  Solving for p, Initial residual = 0.00157979349229, Final residual = 1.357549199e-05, No Iterations 461
FDICPCG:  Solving for p, Initial residual = 3.00042570034e-05, Final residual = 8.90102933907e-07, No Iterations 88
FDICPCG:  Solving for p, Initial residual = 4.10019260739e-06, Final residual = 8.54852707716e-07, No Iterations 3
diagonal:  Solving for rho, Initial residual = 0, Final residual = 0, No Iterations 0
time step continuity errors : sum local = 1.72448328658e-06, global = -1.72208438036e-06, cumulative = -0.000154889721702
FDICPCG:  Solving for p, Initial residual = 0.000238295769175, Final residual = 2.14450634934e-06, No Iterations 470
FDICPCG:  Solving for p, Initial residual = 7.70672977669e-06, Final residual = 9.56527123451e-07, No Iterations 37
FDICPCG:  Solving for p, Initial residual = 1.62038532867e-06, Final residual = 8.81765675695e-07, No Iterations 3
diagonal:  Solving for rho, Initial residual = 0, Final residual = 0, No Iterations 0
time step continuity errors : sum local = 3.84162076593e-07, global = 2.35511660713e-07, cumulative = -0.000154654210041
FDICPCG:  Solving for p, Initial residual = 0.000141329564988, Final residual = 1.14733899349e-06, No Iterations 433
FDICPCG:  Solving for p, Initial residual = 1.70770956492e-06, Final residual = 5.29563229027e-07, No Iterations 3
FDICPCG:  Solving for p, Initial residual = 6.01608147538e-07, Final residual = 6.85083476902e-07, No Iterations 3
diagonal:  Solving for rho, Initial residual = 0, Final residual = 0, No Iterations 0
time step continuity errors : sum local = 4.43141738026e-07, global = 3.16616864732e-07, cumulative = -0.000154337593176
PIMPLE: Iteration 4
DILUPBiCGStab:  Solving for Ux, Initial residual = 0.000302606867672, Final residual = 9.11966348517e-11, No Iterations 3
DILUPBiCGStab:  Solving for Uy, Initial residual = 0.000302560841087, Final residual = 8.7609690181e-10, No Iterations 3
DILUPBiCGStab:  Solving for Uz, Initial residual = 0.000137370433688, Final residual = 2.21180765937e-10, No Iterations 3
DILUPBiCGStab:  Solving for h, Initial residual = 0.0271155592745, Final residual = 9.8081624796e-10, No Iterations 3
FDICPCG:  Solving for p, Initial residual = 0.000597753623703, Final residual = 5.10380820139e-06, No Iterations 426
FDICPCG:  Solving for p, Initial residual = 1.13294593406e-05, Final residual = 9.14982411227e-07, No Iterations 72
FDICPCG:  Solving for p, Initial residual = 1.8816978956e-06, Final residual = 6.45884898187e-07, No Iterations 3
diagonal:  Solving for rho, Initial residual = 0, Final residual = 0, No Iterations 0
time step continuity errors : sum local = 9.35097787092e-07, global = -9.34766259483e-07, cumulative = -0.000155272359436
FDICPCG:  Solving for p, Initial residual = 8.58843492887e-05, Final residual = 9.33830110426e-07, No Iterations 455
FDICPCG:  Solving for p, Initial residual = 2.92534889395e-06, Final residual = 8.06163215861e-07, No Iterations 3
FDICPCG:  Solving for p, Initial residual = 9.72014196327e-07, Final residual = 9.50951681007e-07, No Iterations 3
diagonal:  Solving for rho, Initial residual = 0, Final residual = 0, No Iterations 0
time step continuity errors : sum local = 2.53328447658e-07, global = -2.03149797627e-07, cumulative = -0.000155475509234
FDICPCG:  Solving for p, Initial residual = 5.25452583175e-05, Final residual = 9.2489721078e-07, No Iterations 400
FDICPCG:  Solving for p, Initial residual = 1.06856969588e-06, Final residual = 7.52135004839e-07, No Iterations 7
FDICPCG:  Solving for p, Initial residual = 7.86307346113e-07, Final residual = 6.35029836837e-07, No Iterations 3
diagonal:  Solving for rho, Initial residual = 0, Final residual = 0, No Iterations 0
time step continuity errors : sum local = 2.33257222098e-07, global = -1.75423103419e-07, cumulative = -0.000155650932337
PIMPLE: Iteration 5
DILUPBiCGStab:  Solving for Ux, Initial residual = 0.000124089343201, Final residual = 1.8451520874e-10, No Iterations 3
DILUPBiCGStab:  Solving for Uy, Initial residual = 0.000124160717394, Final residual = 3.15937362805e-11, No Iterations 3
DILUPBiCGStab:  Solving for Uz, Initial residual = 0.000143598281527, Final residual = 2.38867826389e-10, No Iterations 3
DILUPBiCGStab:  Solving for h, Initial residual = 0.0114619555981, Final residual = 5.03447573207e-09, No Iterations 3
FDICPCG:  Solving for p, Initial residual = 0.000230327606336, Final residual = 1.91144259964e-06, No Iterations 400
FDICPCG:  Solving for p, Initial residual = 4.86031921855e-06, Final residual = 9.06561215152e-07, No Iterations 37
FDICPCG:  Solving for p, Initial residual = 1.21925510216e-06, Final residual = 8.2108599647e-07, No Iterations 10
diagonal:  Solving for rho, Initial residual = 0, Final residual = 0, No Iterations 0
time step continuity errors : sum local = 4.08346874149e-07, global = -4.08283024499e-07, cumulative = -0.000156059215361
FDICPCG:  Solving for p, Initial residual = 3.21192244873e-05, Final residual = 9.79068530064e-07, No Iterations 358
FDICPCG:  Solving for p, Initial residual = 1.67109648161e-06, Final residual = 7.54174540133e-07, No Iterations 8
FDICPCG:  Solving for p, Initial residual = 8.02776359706e-07, Final residual = 5.7607601523e-07, No Iterations 3
diagonal:  Solving for rho, Initial residual = 0, Final residual = 0, No Iterations 0
time step continuity errors : sum local = 1.47978824466e-07, global = -1.32050036055e-07, cumulative = -0.000156191265398
FDICPCG:  Solving for p, Initial residual = 1.9870097577e-05, Final residual = 9.2338315304e-07, No Iterations 331
FDICPCG:  Solving for p, Initial residual = 9.77037916774e-07, Final residual = 9.17757116777e-07, No Iterations 4
FDICPCG:  Solving for p, Initial residual = 9.56769711449e-07, Final residual = 6.38713975178e-07, No Iterations 3
diagonal:  Solving for rho, Initial residual = 0, Final residual = 0, No Iterations 0
time step continuity errors : sum local = 1.4060930893e-07, global = -1.22571827831e-07, cumulative = -0.000156313837225
ExecutionTime = 16.947525 s  ClockTime = 17 s

Courant Number mean: 0.235562923697 max: 0.612582745891
Time = 0.01s

PIMPLE: Iteration 1
diagonal:  Solving for rho, Initial residual = 0, Final residual = 0, No Iterations 0
DILUPBiCGStab:  Solving for Ux, Initial residual = 0.031119877789, Final residual = 6.36389830974e-09, No Iterations 3
DILUPBiCGStab:  Solving for Uy, Initial residual = 0.0311143625946, Final residual = 4.47389512091e-09, No Iterations 3
DILUPBiCGStab:  Solving for Uz, Initial residual = 0.131990133684, Final residual = 1.91764391419e-10, No Iterations 4
DILUPBiCGStab:  Solving for h, Initial residual = 0.130770407914, Final residual = 5.28400350203e-09, No Iterations 3
FDICPCG:  Solving for p, Initial residual = 0.0261399196204, Final residual = 0.000218023403872, No Iterations 511
FDICPCG:  Solving for p, Initial residual = 0.000501748797386, Final residual = 3.94706175621e-06, No Iterations 124
FDICPCG:  Solving for p, Initial residual = 5.92776782501e-05, Final residual = 8.60127711169e-07, No Iterations 55
diagonal:  Solving for rho, Initial residual = 0, Final residual = 0, No Iterations 0
time step continuity errors : sum local = 3.46473401915e-06, global = 2.3505063843e-06, cumulative = -0.000153963330841
FDICPCG:  Solving for p, Initial residual = 0.00523311703773, Final residual = 4.73261997797e-05, No Iterations 521
FDICPCG:  Solving for p, Initial residual = 0.000211287031271, Final residual = 2.07475215942e-06, No Iterations 39
FDICPCG:  Solving for p, Initial residual = 2.92221013246e-05, Final residual = 9.6954195266e-07, No Iterations 47
diagonal:  Solving for rho, Initial residual = 0, Final residual = 0, No Iterations 0
time step continuity errors : sum local = 1.50351943287e-05, global = 1.42387150111e-05, cumulative = -0.00013972461583
FDICPCG:  Solving for p, Initial residual = 0.00124164937907, Final residual = 9.45896491698e-06, No Iterations 526
FDICPCG:  Solving for p, Initial residual = 4.12174221081e-05, Final residual = 9.35892578002e-07, No Iterations 22
FDICPCG:  Solving for p, Initial residual = 6.46242470602e-06, Final residual = 4.95588440901e-07, No Iterations 4
diagonal:  Solving for rho, Initial residual = 0, Final residual = 0, No Iterations 0
time step continuity errors : sum local = 1.5194385515e-05, global = 1.50530392116e-05, cumulative = -0.000124671576618
PIMPLE: Iteration 2
DILUPBiCGStab:  Solving for Ux, Initial residual = 0.00815561322422, Final residual = 2.81045127917e-09, No Iterations 3
DILUPBiCGStab:  Solving for Uy, Initial residual = 0.00815462561815, Final residual = 2.38115542617e-09, No Iterations 3
DILUPBiCGStab:  Solving for Uz, Initial residual = 0.018620082094, Final residual = 3.49037341221e-09, No Iterations 3
DILUPBiCGStab:  Solving for h, Initial residual = 0.216275586574, Final residual = 2.11917711678e-09, No Iterations 4
FDICPCG:  Solving for p, Initial residual = 0.00894884776392, Final residual = 8.56910160565e-05, No Iterations 479
FDICPCG:  Solving for p, Initial residual = 0.000169176132956, Final residual = 1.48036737641e-06, No Iterations 81
FDICPCG:  Solving for p, Initial residual = 1.87306352367e-05, Final residual = 9.32749037259e-07, No Iterations 5
diagonal:  Solving for rho, Initial residual = 0, Final residual = 0, No Iterations 0
time step continuity errors : sum local = 6.02604134538e-06, global = -6.02604134538e-06, cumulative = -0.000130697617964
FDICPCG:  Solving for p, Initial residual = 0.00152262977113, Final residual = 1.11772783346e-05, No Iterations 505
FDICPCG:  Solving for p, Initial residual = 3.18461944853e-05, Final residual = 5.45071578966e-07, No Iterations 28
FDICPCG:  Solving for p, Initial residual = 4.08208990948e-06, Final residual = 7.81150775082e-07, No Iterations 3
diagonal:  Solving for rho, Initial residual = 0, Final residual = 0, No Iterations 0
time step continuity errors : sum local = 2.91611864211e-06, global = 2.9084221236e-06, cumulative = -0.00012778919584
FDICPCG:  Solving for p, Initial residual = 0.000889944095265, Final residual = 8.61731257843e-06, No Iterations 470
FDICPCG:  Solving for p, Initial residual = 1.45843329067e-05, Final residual = 9.6935320703e-07, No Iterations 133
FDICPCG:  Solving for p, Initial residual = 2.0853528429e-06, Final residual = 7.26841178623e-07, No Iterations 3
diagonal:  Solving for rho, Initial residual = 0, Final residual = 0, No Iterations 0
time step continuity errors : sum local = 3.2956856544e-06, global = 3.28794505638e-06, cumulative = -0.000124501250784
PIMPLE: Iteration 3
DILUPBiCGStab:  Solving for Ux, Initial residual = 0.00196196116449, Final residual = 7.00009872802e-10, No Iterations 3
DILUPBiCGStab:  Solving for Uy, Initial residual = 0.00196075600163, Final residual = 8.66119667084e-10, No Iterations 3
DILUPBiCGStab:  Solving for Uz, Initial residual = 0.00139325340371, Final residual = 3.78965976592e-09, No Iterations 3
DILUPBiCGStab:  Solving for h, Initial residual = 0.142023807752, Final residual = 7.4166454473e-09, No Iterations 3
FDICPCG:  Solving for p, Initial residual = 0.00381522780498, Final residual = 3.74664736182e-05, No Iterations 374
FDICPCG:  Solving for p, Initial residual = 6.79879946496e-05, Final residual = 7.08909027534e-07, No Iterations 200
FDICPCG:  Solving for p, Initial residual = 7.34991660713e-06, Final residual = 4.89570434161e-07, No Iterations 4
diagonal:  Solving for rho, Initial residual = 0, Final residual = 0, No Iterations 0
time step continuity errors : sum local = 3.83708849921e-06, global = -3.83708849921e-06, cumulative = -0.000128338339283
FDICPCG:  Solving for p, Initial residual = 0.000592234232226, Final residual = 5.89004245812e-06, No Iterations 434
FDICPCG:  Solving for p, Initial residual = 1.53803967176e-05, Final residual = 9.97401285901e-07, No Iterations 98
FDICPCG:  Solving for p, Initial residual = 2.29752490756e-06, Final residual = 9.67696204651e-07, No Iterations 3
diagonal:  Solving for rho, Initial residual = 0, Final residual = 0, No Iterations 0
time step continuity errors : sum local = 9.05089542107e-07, global = -5.38921488743e-07, cumulative = -0.000128877260772
FDICPCG:  Solving for p, Initial residual = 0.000347282047333, Final residual = 3.46620920467e-06, No Iterations 399
FDICPCG:  Solving for p, Initial residual = 4.27254146924e-06, Final residual = 9.94004067784e-07, No Iterations 113
FDICPCG:  Solving for p, Initial residual = 1.14915528455e-06, Final residual = 7.64369369359e-07, No Iterations 10
diagonal:  Solving for rho, Initial residual = 0, Final residual = 0, No Iterations 0
time step continuity errors : sum local = 8.71686335407e-07, global = -4.12057492089e-07, cumulative = -0.000129289318264
PIMPLE: Iteration 4
DILUPBiCGStab:  Solving for Ux, Initial residual = 0.00104047220559, Final residual = 1.79026860575e-10, No Iterations 3
DILUPBiCGStab:  Solving for Uy, Initial residual = 0.00104062880237, Final residual = 1.9355221409e-10, No Iterations 3
DILUPBiCGStab:  Solving for Uz, Initial residual = 0.000427804961696, Final residual = 4.9712160394e-10, No Iterations 3
DILUPBiCGStab:  Solving for h, Initial residual = 0.0689564836679, Final residual = 3.70610207961e-09, No Iterations 3
FDICPCG:  Solving for p, Initial residual = 0.00162346024879, Final residual = 1.57628216133e-05, No Iterations 340
FDICPCG:  Solving for p, Initial residual = 3.26529936229e-05, Final residual = 9.69644760447e-07, No Iterations 113
FDICPCG:  Solving for p, Initial residual = 3.76421797272e-06, Final residual = 9.68816281374e-07, No Iterations 3
diagonal:  Solving for rho, Initial residual = 0, Final residual = 0, No Iterations 0
time step continuity errors : sum local = 1.75785855518e-06, global = -1.75785855518e-06, cumulative = -0.000131047176819
FDICPCG:  Solving for p, Initial residual = 0.000247784662384, Final residual = 2.4322755173e-06, No Iterations 402
FDICPCG:  Solving for p, Initial residual = 8.05587687464e-06, Final residual = 9.74249986319e-07, No Iterations 73
FDICPCG:  Solving for p, Initial residual = 1.4694639048e-06, Final residual = 7.76431142066e-07, No Iterations 10
diagonal:  Solving for rho, Initial residual = 0, Final residual = 0, No Iterations 0
time step continuity errors : sum local = 6.00633532854e-07, global = -5.25037346657e-07, cumulative = -0.000131572214166
FDICPCG:  Solving for p, Initial residual = 0.000140049968776, Final residual = 1.18586193481e-06, No Iterations 373
FDICPCG:  Solving for p, Initial residual = 1.67323751206e-06, Final residual = 9.96572958707e-07, No Iterations 10
FDICPCG:  Solving for p, Initial residual = 1.0226362318e-06, Final residual = 9.23535181859e-07, No Iterations 8
diagonal:  Solving for rho, Initial residual = 0, Final residual = 0, No Iterations 0
time step continuity errors : sum local = 5.65551079856e-07, global = -4.80068541797e-07, cumulative = -0.000132052282707
PIMPLE: Iteration 5
DILUPBiCGStab:  Solving for Ux, Initial residual = 0.000284661661653, Final residual = 1.6444791211e-10, No Iterations 3
DILUPBiCGStab:  Solving for Uy, Initial residual = 0.000284665169852, Final residual = 1.13035798241e-10, No Iterations 3
DILUPBiCGStab:  Solving for Uz, Initial residual = 0.000321522354106, Final residual = 3.68577656744e-09, No Iterations 3
DILUPBiCGStab:  Solving for h, Initial residual = 0.029138615822, Final residual = 1.58197740918e-09, No Iterations 3
FDICPCG:  Solving for p, Initial residual = 0.000567004993554, Final residual = 5.4191244645e-06, No Iterations 393
FDICPCG:  Solving for p, Initial residual = 1.1825805559e-05, Final residual = 8.21323839005e-07, No Iterations 124
FDICPCG:  Solving for p, Initial residual = 1.87768932968e-06, Final residual = 8.12601361446e-07, No Iterations 3
diagonal:  Solving for rho, Initial residual = 0, Final residual = 0, No Iterations 0
time step continuity errors : sum local = 7.23888888677e-07, global = -7.23881814811e-07, cumulative = -0.000132776164522
FDICPCG:  Solving for p, Initial residual = 7.88930180799e-05, Final residual = 9.82568531727e-07, No Iterations 359
FDICPCG:  Solving for p, Initial residual = 3.17069953804e-06, Final residual = 8.79222083478e-07, No Iterations 3
FDICPCG:  Solving for p, Initial residual = 1.04567329108e-06, Final residual = 7.32799112332e-07, No Iterations 7
diagonal:  Solving for rho, Initial residual = 0, Final residual = 0, No Iterations 0
time step continuity errors : sum local = 2.84552503363e-07, global = -2.5930541192e-07, cumulative = -0.000133035469934
FDICPCG:  Solving for p, Initial residual = 4.90280637404e-05, Final residual = 6.88604967116e-07, No Iterations 347
FDICPCG:  Solving for p, Initial residual = 8.02385656863e-07, Final residual = 8.76906533498e-07, No Iterations 4
FDICPCG:  Solving for p, Initial residual = 9.20423101713e-07, Final residual = 5.56266855158e-07, No Iterations 3
diagonal:  Solving for rho, Initial residual = 0, Final residual = 0, No Iterations 0
time step continuity errors : sum local = 2.7154856731e-07, global = -2.4274689654e-07, cumulative = -0.000133278216831
ExecutionTime = 17.803389 s  ClockTime = 18 s

End

Finalising parallel run
